REMARK  Name = opt10.xyz
REMARK  9 active torsions:
REMARK  status: ('A' for Active; 'I' for Inactive)
REMARK    1  A    between atoms: C_1  and  O_2
REMARK    2  A    between atoms: O_2  and  C_3
REMARK    3  A    between atoms: C_4  and  C_13
REMARK    4  A    between atoms: C_5  and  O_12
REMARK    5  A    between atoms: C_6  and  O_10
REMARK    6  A    between atoms: C_7  and  O_9
REMARK    7  A    between atoms: O_10  and  C_11
REMARK    8  A    between atoms: C_13  and  C_15
REMARK    9  A    between atoms: C_16  and  C_17
REMARK                            x       y       z     vdW  Elec       q    Type
REMARK                         _______ _______ _______ _____ _____    ______ ____
ROOT
ATOM      1  C   UNL     1       3.033  -1.217   0.289  0.00  0.00    +0.138 A 
ATOM      2  C   UNL     1       4.426  -1.203   0.321  0.00  0.00    +0.095 A 
ATOM      3  C   UNL     1       5.117  -2.387   0.106  0.00  0.00    +0.166 A 
ATOM      4  C   UNL     1       4.459  -3.603  -0.133  0.00  0.00    +0.204 A 
ATOM      5  C   UNL     1       3.058  -3.608  -0.170  0.00  0.00    +0.177 A 
ATOM      6  C   UNL     1       2.333  -2.418   0.084  0.00  0.00    +0.108 A 
ENDROOT
BRANCH   1   8
ATOM      7  C   UNL     1       2.233   0.688  -0.743  0.00  0.00    +0.277 C 
ATOM      8  O   UNL     1       2.387  -0.026   0.486  0.00  0.00    -0.494 OA
ENDBRANCH   1   8
BRANCH   3   9
ATOM      9  O   UNL     1       6.486  -2.340   0.127  0.00  0.00    -0.503 OA
ATOM     10  H   UNL     1       6.774  -3.255  -0.065  0.00  0.00    +0.292 HD
ENDBRANCH   3   9
BRANCH   5  11
ATOM     11  O   UNL     1       2.397  -4.774  -0.476  0.00  0.00    -0.503 OA
ATOM     12  H   UNL     1       1.462  -4.558  -0.698  0.00  0.00    +0.292 HD
ENDBRANCH   5  11
BRANCH   4  13
ATOM     13  O   UNL     1       5.320  -4.652  -0.337  0.00  0.00    -0.488 OA
ATOM     14  C   UNL     1       4.797  -5.968  -0.199  0.00  0.00    +0.277 C 
ENDBRANCH   4  13
BRANCH   6  15
ATOM     15  C   UNL     1       0.846  -2.475   0.067  0.00  0.00    +0.193 C 
ATOM     16  O   UNL     1       0.296  -3.300  -0.659  0.00  0.00    -0.287 OA
BRANCH  15  17
ATOM     17  C   UNL     1       0.072  -1.595   0.978  0.00  0.00    +0.052 C 
ATOM     18  C   UNL     1      -1.241  -1.423   0.774  0.00  0.00    +0.012 C 
BRANCH  18  19
ATOM     19  C   UNL     1      -2.020  -0.523   1.621  0.00  0.00    -0.025 A 
ATOM     20  C   UNL     1      -2.629  -0.998   2.787  0.00  0.00    +0.008 A 
ATOM     21  C   UNL     1      -3.358  -0.129   3.601  0.00  0.00    +0.001 A 
ATOM     22  C   UNL     1      -3.478   1.217   3.255  0.00  0.00    +0.000 A 
ATOM     23  C   UNL     1      -2.870   1.696   2.095  0.00  0.00    +0.001 A 
ATOM     24  C   UNL     1      -2.141   0.829   1.280  0.00  0.00    +0.008 A 
ENDBRANCH  18  19
ENDBRANCH  15  17
ENDBRANCH   6  15
TORSDOF 7
