REMARK  Name = opt15.xyz
REMARK  9 active torsions:
REMARK  status: ('A' for Active; 'I' for Inactive)
REMARK    1  A    between atoms: CG_7  and  CB_10
REMARK    2  A    between atoms: CB_10  and  CA_11
REMARK    3  A    between atoms: CA_11  and  C_12
REMARK    4  A    between atoms: CA_11  and  N_15
REMARK    5  A    between atoms: C_12  and  O_14
REMARK    6  A    between atoms: C_16  and  C_18
REMARK    7  A    between atoms: C_19  and  C_20
REMARK    8  A    between atoms: C_22  and  O_27
REMARK    9  A    between atoms: C_23  and  O_26
REMARK                            x       y       z     vdW  Elec       q    Type
REMARK                         _______ _______ _______ _____ _____    ______ ____
ROOT
ATOM      1  CA  TRP A   1      -0.888  -3.671   0.528  0.00  0.00    +0.186 C 
ENDROOT
BRANCH   1   2
ATOM      2  N   TRP A   1      -1.229  -4.977  -0.048  0.00  0.00    -0.299 N 
ATOM      3  C   UNK A   0      -0.280  -5.964  -0.110  0.00  0.00    +0.238 C 
ATOM      4  O   UNK A   0       0.873  -5.786   0.270  0.00  0.00    -0.271 OA
ATOM      5  H   TRP A   1      -2.209  -5.221  -0.124  0.00  0.00    +0.150 HD
BRANCH   3   6
ATOM      6  C   UNK A   0      -0.797  -7.264  -0.594  0.00  0.00    +0.068 C 
ATOM      7  C   UNK A   0       0.039  -8.309  -0.697  0.00  0.00    +0.013 C 
BRANCH   7   8
ATOM      8  C   UNK A   0      -0.360  -9.657  -1.131  0.00  0.00    -0.021 A 
ATOM      9  C   UNK A   0       0.343 -10.759  -0.618  0.00  0.00    +0.057 A 
ATOM     10  C   UNK A   0       0.003 -12.046  -1.023  0.00  0.00    +0.159 A 
ATOM     11  C   UNK A   0      -1.023 -12.247  -1.941  0.00  0.00    +0.158 A 
ATOM     12  C   UNK A   0      -1.718 -11.173  -2.471  0.00  0.00    +0.050 A 
ATOM     13  C   UNK A   0      -1.382  -9.876  -2.071  0.00  0.00    +0.012 A 
BRANCH  10  14
ATOM     14  O   UNK A   0       0.653 -13.151  -0.546  0.00  0.00    -0.503 OA
ATOM     15  H   UNK A   0       1.339 -12.856   0.077  0.00  0.00    +0.292 HD
ENDBRANCH  10  14
BRANCH  11  16
ATOM     16  O   UNK A   0      -1.351 -13.513  -2.332  0.00  0.00    -0.503 OA
ATOM     17  H   UNK A   0      -0.736 -14.090  -1.837  0.00  0.00    +0.292 HD
ENDBRANCH  11  16
ENDBRANCH   7   8
ENDBRANCH   3   6
ENDBRANCH   1   2
BRANCH   1  18
ATOM     18  C   TRP A   1      -0.894  -3.824   2.057  0.00  0.00    +0.326 C 
ATOM     19  OXT TRP A   1      -1.829  -3.531   2.790  0.00  0.00    -0.249 OA
BRANCH  18  20
ATOM     20  O   TRP A   1       0.217  -4.449   2.530  0.00  0.00    -0.479 OA
ATOM     21  H   TRP A   1       0.795  -4.791   1.803  0.00  0.00    +0.295 HD
ENDBRANCH  18  20
ENDBRANCH   1  18
BRANCH   1  22
ATOM     22  CB  TRP A   1      -1.863  -2.583   0.062  0.00  0.00    +0.071 C 
BRANCH  22  30
ATOM     23  CZ3 TRP A   1       1.231   0.285  -2.014  0.00  0.00    +0.001 A 
ATOM     24  CH2 TRP A   1       1.377   1.494  -1.338  0.00  0.00    +0.002 A 
ATOM     25  CZ2 TRP A   1       0.641   1.763  -0.180  0.00  0.00    +0.026 A 
ATOM     26  CE2 TRP A   1      -0.242   0.776   0.272  0.00  0.00    +0.047 A 
ATOM     27  NE1 TRP A   1      -1.075   0.768   1.367  0.00  0.00    -0.360 N 
ATOM     28  HE1 TRP A   1      -1.159   1.526   2.030  0.00  0.00    +0.165 HD
ATOM     29  CD1 TRP A   1      -1.759  -0.414   1.431  0.00  0.00    +0.087 A 
ATOM     30  CG  TRP A   1      -1.373  -1.200   0.363  0.00  0.00    -0.020 A 
ATOM     31  CD2 TRP A   1      -0.410  -0.445  -0.381  0.00  0.00    +0.003 A 
ATOM     32  CE3 TRP A   1       0.343  -0.691  -1.548  0.00  0.00    +0.010 A 
ENDBRANCH  22  30
ENDBRANCH   1  22
TORSDOF 9
