REMARK  Name = opt12.xyz
REMARK  11 active torsions:
REMARK  status: ('A' for Active; 'I' for Inactive)
REMARK    1  A    between atoms: C_2  and  O_25
REMARK    2  A    between atoms: C_3  and  O_24
REMARK    3  A    between atoms: C_4  and  O_11
REMARK    4  A    between atoms: C_6  and  C_7
REMARK    5  A    between atoms: C_6  and  O_10
REMARK    6  A    between atoms: C_7  and  O_9
REMARK    7  A    between atoms: O_11  and  C_12
REMARK    8  A    between atoms: C_12  and  C_14
REMARK    9  A    between atoms: C_15  and  C_16
REMARK   10  A    between atoms: C_18  and  O_23
REMARK   11  A    between atoms: C_19  and  O_22
REMARK                            x       y       z     vdW  Elec       q    Type
REMARK                         _______ _______ _______ _____ _____    ______ ____
ROOT
ATOM      1  C   UNL     1       0.741   1.261  -0.127  0.00  0.00    +0.080 C 
ATOM      2  C   UNL     1      -0.727   1.182   0.320  0.00  0.00    +0.168 C 
ATOM      3  C   UNL     1      -1.417  -0.150  -0.012  0.00  0.00    +0.093 C 
ATOM      4  C   UNL     1      -0.587  -1.394   0.330  0.00  0.00    +0.211 C 
ATOM      5  C   UNL     1       0.812  -1.274  -0.300  0.00  0.00    +0.184 C 
ATOM      6  C   UNL     1       1.554  -0.005   0.149  0.00  0.00    +0.150 C 
ENDROOT
BRANCH   2   7
ATOM      7  C   UNL     1      -0.851   1.537   1.818  0.00  0.00    +0.337 C 
ATOM      8  O   UNL     1      -0.192   1.036   2.717  0.00  0.00    -0.248 OA
BRANCH   7   9
ATOM      9  O   UNL     1      -1.777   2.504   2.033  0.00  0.00    -0.479 OA
ATOM     10  H   UNL     1      -2.101   2.795   1.145  0.00  0.00    +0.295 HD
ENDBRANCH   7   9
ENDBRANCH   2   7
BRANCH   5  11
ATOM     11  O   UNL     1       1.614  -2.415  -0.006  0.00  0.00    -0.386 OA
ATOM     12  H   UNL     1       1.990  -2.264   0.884  0.00  0.00    +0.210 HD
ENDBRANCH   5  11
BRANCH   2  13
ATOM     13  O   UNL     1      -1.476   2.229  -0.359  0.00  0.00    -0.377 OA
ATOM     14  H   UNL     1      -1.277   2.174  -1.313  0.00  0.00    +0.211 HD
ENDBRANCH   2  13
BRANCH   6  15
ATOM     15  O   UNL     1       1.955  -0.115   1.516  0.00  0.00    -0.389 OA
ATOM     16  H   UNL     1       1.205   0.101   2.113  0.00  0.00    +0.210 HD
ENDBRANCH   6  15
BRANCH   4  17
ATOM     17  O   UNL     1      -0.514  -1.479   1.764  0.00  0.00    -0.455 OA
BRANCH  17  18
ATOM     18  C   UNL     1      -0.472  -2.714   2.320  0.00  0.00    +0.332 C 
ATOM     19  O   UNL     1      -0.508  -3.782   1.736  0.00  0.00    -0.246 OA
BRANCH  18  20
ATOM     20  C   UNL     1      -0.390  -2.541   3.784  0.00  0.00    +0.092 C 
ATOM     21  C   UNL     1      -0.200  -3.611   4.571  0.00  0.00    +0.015 C 
BRANCH  21  22
ATOM     22  C   UNL     1      -0.141  -3.544   6.037  0.00  0.00    -0.021 A 
ATOM     23  C   UNL     1      -1.027  -2.741   6.776  0.00  0.00    +0.012 A 
ATOM     24  C   UNL     1      -0.992  -2.738   8.173  0.00  0.00    +0.050 A 
ATOM     25  C   UNL     1      -0.075  -3.544   8.828  0.00  0.00    +0.158 A 
ATOM     26  C   UNL     1       0.804  -4.349   8.110  0.00  0.00    +0.159 A 
ATOM     27  C   UNL     1       0.775  -4.361   6.719  0.00  0.00    +0.057 A 
BRANCH  25  28
ATOM     28  O   UNL     1      -0.046  -3.548  10.193  0.00  0.00    -0.503 OA
ATOM     29  H   UNL     1       0.661  -4.184  10.420  0.00  0.00    +0.292 HD
ENDBRANCH  25  28
BRANCH  26  30
ATOM     30  O   UNL     1       1.681  -5.122   8.823  0.00  0.00    -0.503 OA
ATOM     31  H   UNL     1       2.237  -5.610   8.191  0.00  0.00    +0.292 HD
ENDBRANCH  26  30
ENDBRANCH  21  22
ENDBRANCH  18  20
ENDBRANCH  17  18
ENDBRANCH   4  17
TORSDOF 11
