REMARK  Name = opt16.xyz
REMARK  12 active torsions:
REMARK  status: ('A' for Active; 'I' for Inactive)
REMARK    1  A    between atoms: C_1  and  O_2
REMARK    2  A    between atoms: O_2  and  C_3
REMARK    3  A    between atoms: C_4  and  O_26
REMARK    4  A    between atoms: C_7  and  C_9
REMARK    5  A    between atoms: C_10  and  C_11
REMARK    6  A    between atoms: C_11  and  O_13
REMARK    7  A    between atoms: O_13  and  C_14
REMARK    8  A    between atoms: C_16  and  C_22
REMARK    9  A    between atoms: C_16  and  O_25
REMARK   10  A    between atoms: C_18  and  O_21
REMARK   11  A    between atoms: C_19  and  O_20
REMARK   12  A    between atoms: C_22  and  O_24
REMARK                            x       y       z     vdW  Elec       q    Type
REMARK                         _______ _______ _______ _____ _____    ______ ____
ROOT
ATOM      1  C   UNL     1      10.946   4.286  -0.020  0.00  0.00    +0.211 C 
ATOM      2  C   UNL     1      11.326   5.424   0.935  0.00  0.00    +0.093 C 
ATOM      3  C   UNL     1      11.236   6.825   0.313  0.00  0.00    +0.168 C 
ATOM      4  C   UNL     1      11.911   6.914  -1.056  0.00  0.00    +0.080 C 
ATOM      5  C   UNL     1      11.517   5.783  -1.998  0.00  0.00    +0.150 C 
ATOM      6  C   UNL     1      11.715   4.409  -1.343  0.00  0.00    +0.184 C 
ENDROOT
BRANCH   3   7
ATOM      7  O   UNL     1      11.914   7.729   1.224  0.00  0.00    -0.377 OA
ATOM      8  H   UNL     1      12.207   8.506   0.707  0.00  0.00    +0.211 HD
ENDBRANCH   3   7
BRANCH   3   9
ATOM      9  C   UNL     1       9.776   7.316   0.267  0.00  0.00    +0.337 C 
ATOM     10  O   UNL     1       8.972   7.085  -0.621  0.00  0.00    -0.248 OA
BRANCH   9  11
ATOM     11  O   UNL     1       9.469   8.058   1.363  0.00  0.00    -0.479 OA
ATOM     12  H   UNL     1      10.276   8.124   1.928  0.00  0.00    +0.295 HD
ENDBRANCH   9  11
ENDBRANCH   3   9
BRANCH   5  13
ATOM     13  O   UNL     1      12.343   5.865  -3.164  0.00  0.00    -0.389 OA
ATOM     14  H   UNL     1      12.229   5.013  -3.632  0.00  0.00    +0.210 HD
ENDBRANCH   5  13
BRANCH   6  15
ATOM     15  O   UNL     1      11.291   3.401  -2.272  0.00  0.00    -0.386 OA
ATOM     16  H   UNL     1      10.315   3.391  -2.249  0.00  0.00    +0.210 HD
ENDBRANCH   6  15
BRANCH   1  17
ATOM     17  O   UNL     1       9.535   4.307  -0.327  0.00  0.00    -0.455 OA
BRANCH  17  18
ATOM     18  C   UNL     1       8.718   3.759   0.610  0.00  0.00    +0.332 C 
ATOM     19  O   UNL     1       9.074   3.273   1.671  0.00  0.00    -0.246 OA
BRANCH  18  21
ATOM     20  C   UNL     1       6.367   3.184   0.806  0.00  0.00    +0.015 C 
ATOM     21  C   UNL     1       7.327   3.823   0.120  0.00  0.00    +0.092 C 
BRANCH  20  26
ATOM     22  C   UNL     1       3.137   2.917  -1.191  0.00  0.00    +0.162 A 
ATOM     23  C   UNL     1       2.222   2.809  -0.142  0.00  0.00    +0.158 A 
ATOM     24  C   UNL     1       2.641   2.913   1.181  0.00  0.00    +0.050 A 
ATOM     25  C   UNL     1       3.998   3.064   1.471  0.00  0.00    +0.012 A 
ATOM     26  C   UNL     1       4.944   3.139   0.441  0.00  0.00    -0.021 A 
ATOM     27  C   UNL     1       4.499   3.067  -0.888  0.00  0.00    +0.057 A 
BRANCH  22  29
ATOM     28  C   UNL     1       1.615   3.363  -2.967  0.00  0.00    +0.277 C 
ATOM     29  O   UNL     1       2.855   2.815  -2.527  0.00  0.00    -0.491 OA
ENDBRANCH  22  29
BRANCH  23  30
ATOM     30  O   UNL     1       0.902   2.513  -0.329  0.00  0.00    -0.503 OA
ATOM     31  H   UNL     1       0.877   1.850  -1.040  0.00  0.00    +0.292 HD
ENDBRANCH  23  30
ENDBRANCH  20  26
ENDBRANCH  18  21
ENDBRANCH  17  18
ENDBRANCH   1  17
TORSDOF 11
