REMARK  Name = opt17.xyz
REMARK  12 active torsions:
REMARK  status: ('A' for Active; 'I' for Inactive)
REMARK    1  A    between atoms: C_1  and  O_2
REMARK    2  A    between atoms: O_2  and  C_3
REMARK    3  A    between atoms: C_4  and  O_26
REMARK    4  A    between atoms: C_7  and  C_9
REMARK    5  A    between atoms: C_10  and  C_11
REMARK    6  A    between atoms: C_11  and  O_13
REMARK    7  A    between atoms: O_13  and  C_14
REMARK    8  A    between atoms: C_16  and  C_22
REMARK    9  A    between atoms: C_16  and  O_25
REMARK   10  A    between atoms: C_18  and  O_21
REMARK   11  A    between atoms: C_19  and  O_20
REMARK   12  A    between atoms: C_22  and  O_24
REMARK                            x       y       z     vdW  Elec       q    Type
REMARK                         _______ _______ _______ _____ _____    ______ ____
ROOT
ATOM      1  C   UNL     1      10.967   4.297   0.180  0.00  0.00    +0.211 C 
ATOM      2  C   UNL     1      11.308   5.511   1.052  0.00  0.00    +0.093 C 
ATOM      3  C   UNL     1      11.217   6.857   0.320  0.00  0.00    +0.168 C 
ATOM      4  C   UNL     1      11.931   6.849  -1.032  0.00  0.00    +0.080 C 
ATOM      5  C   UNL     1      11.576   5.642  -1.894  0.00  0.00    +0.150 C 
ATOM      6  C   UNL     1      11.770   4.327  -1.129  0.00  0.00    +0.184 C 
ENDROOT
BRANCH   3   7
ATOM      7  O   UNL     1      11.856   7.840   1.175  0.00  0.00    -0.377 OA
ATOM      8  H   UNL     1      12.154   8.579   0.607  0.00  0.00    +0.211 HD
ENDBRANCH   3   7
BRANCH   3   9
ATOM      9  C   UNL     1       9.752   7.321   0.194  0.00  0.00    +0.337 C 
ATOM     10  O   UNL     1       8.979   7.009  -0.696  0.00  0.00    -0.248 OA
BRANCH   9  11
ATOM     11  O   UNL     1       9.404   8.140   1.221  0.00  0.00    -0.479 OA
ATOM     12  H   UNL     1      10.192   8.262   1.802  0.00  0.00    +0.295 HD
ENDBRANCH   9  11
ENDBRANCH   3   9
BRANCH   5  13
ATOM     13  O   UNL     1      12.435   5.644  -3.039  0.00  0.00    -0.389 OA
ATOM     14  H   UNL     1      12.343   4.758  -3.443  0.00  0.00    +0.210 HD
ENDBRANCH   5  13
BRANCH   6  15
ATOM     15  O   UNL     1      11.381   3.244  -1.986  0.00  0.00    -0.386 OA
ATOM     16  H   UNL     1      10.405   3.225  -1.989  0.00  0.00    +0.210 HD
ENDBRANCH   6  15
BRANCH   1  17
ATOM     17  O   UNL     1       9.564   4.273  -0.162  0.00  0.00    -0.455 OA
BRANCH  17  18
ATOM     18  C   UNL     1       8.731   3.791   0.797  0.00  0.00    +0.332 C 
ATOM     19  O   UNL     1       9.067   3.397   1.901  0.00  0.00    -0.246 OA
BRANCH  18  21
ATOM     20  C   UNL     1       6.382   3.208   0.990  0.00  0.00    +0.015 C 
ATOM     21  C   UNL     1       7.350   3.798   0.272  0.00  0.00    +0.092 C 
BRANCH  20  26
ATOM     22  C   UNL     1       3.195   2.740  -1.036  0.00  0.00    +0.162 A 
ATOM     23  C   UNL     1       2.262   2.688   0.002  0.00  0.00    +0.158 A 
ATOM     24  C   UNL     1       2.655   2.898   1.320  0.00  0.00    +0.050 A 
ATOM     25  C   UNL     1       4.003   3.097   1.620  0.00  0.00    +0.012 A 
ATOM     26  C   UNL     1       4.967   3.113   0.603  0.00  0.00    -0.021 A 
ATOM     27  C   UNL     1       4.548   2.936  -0.724  0.00  0.00    +0.057 A 
BRANCH  22  29
ATOM     28  C   UNL     1       1.712   3.083  -2.861  0.00  0.00    +0.277 C 
ATOM     29  O   UNL     1       2.930   2.531  -2.364  0.00  0.00    -0.491 OA
ENDBRANCH  22  29
BRANCH  23  30
ATOM     30  O   UNL     1       0.954   2.348  -0.188  0.00  0.00    -0.503 OA
ATOM     31  H   UNL     1       0.956   1.659  -0.874  0.00  0.00    +0.292 HD
ENDBRANCH  23  30
ENDBRANCH  20  26
ENDBRANCH  18  21
ENDBRANCH  17  18
ENDBRANCH   1  17
TORSDOF 11
