REMARK  Name = opt11.xyz
REMARK  12 active torsions:
REMARK  status: ('A' for Active; 'I' for Inactive)
REMARK    1  A    between atoms: C_1  and  O_2
REMARK    2  A    between atoms: O_2  and  C_3
REMARK    3  A    between atoms: C_4  and  O_24
REMARK    4  A    between atoms: C_6  and  C_9
REMARK    5  A    between atoms: C_10  and  C_11
REMARK    6  A    between atoms: C_11  and  C_13
REMARK    7  A    between atoms: C_14  and  O_23
REMARK    8  A    between atoms: C_16  and  O_21
REMARK    9  A    between atoms: C_18  and  O_19
REMARK   10  A    between atoms: O_19  and  C_20
REMARK   11  A    between atoms: O_21  and  C_22
REMARK   12  A    between atoms: O_24  and  C_25
REMARK                            x       y       z     vdW  Elec       q    Type
REMARK                         _______ _______ _______ _____ _____    ______ ____
ROOT
ATOM      1  C   UNL     1       5.990   5.244   4.995  0.00  0.00    +0.193 C 
ATOM      2  O   UNL     1       7.179   4.972   5.086  0.00  0.00    -0.287 OA
ENDROOT
BRANCH   1   3
ATOM      3  C   UNL     1       5.367   6.267   5.862  0.00  0.00    +0.105 A 
ATOM      4  C   UNL     1       4.268   5.939   6.670  0.00  0.00    +0.135 A 
ATOM      5  C   UNL     1       3.642   6.903   7.464  0.00  0.00    +0.092 A 
ATOM      6  C   UNL     1       4.146   8.202   7.505  0.00  0.00    +0.127 A 
ATOM      7  C   UNL     1       5.271   8.523   6.741  0.00  0.00    +0.092 A 
ATOM      8  C   UNL     1       5.870   7.573   5.907  0.00  0.00    +0.138 A 
BRANCH   6   9
ATOM      9  O   UNL     1       3.647   9.233   8.252  0.00  0.00    -0.495 OA
ATOM     10  C   UNL     1       2.499   8.959   9.046  0.00  0.00    +0.277 C 
ENDBRANCH   6   9
BRANCH   4  11
ATOM     11  O   UNL     1       3.757   4.670   6.767  0.00  0.00    -0.506 OA
ATOM     12  H   UNL     1       4.488   4.032   6.670  0.00  0.00    +0.292 HD
ENDBRANCH   4  11
BRANCH   8  13
ATOM     13  O   UNL     1       6.981   7.996   5.228  0.00  0.00    -0.494 OA
ATOM     14  C   UNL     1       6.765   8.088   3.822  0.00  0.00    +0.277 C 
ENDBRANCH   8  13
ENDBRANCH   1   3
BRANCH   1  16
ATOM     15  C   UNL     1       5.542   3.545   3.285  0.00  0.00    +0.012 C 
ATOM     16  C   UNL     1       5.078   4.547   4.046  0.00  0.00    +0.052 C 
BRANCH  15  20
ATOM     17  C   UNL     1       3.024   1.242   0.701  0.00  0.00    +0.162 A 
ATOM     18  C   UNL     1       2.736   1.302   2.075  0.00  0.00    +0.162 A 
ATOM     19  C   UNL     1       3.560   2.078   2.908  0.00  0.00    +0.057 A 
ATOM     20  C   UNL     1       4.668   2.773   2.399  0.00  0.00    -0.021 A 
ATOM     21  C   UNL     1       4.956   2.693   1.039  0.00  0.00    +0.012 A 
ATOM     22  C   UNL     1       4.131   1.944   0.200  0.00  0.00    +0.050 A 
BRANCH  17  24
ATOM     23  C   UNL     1       1.379  -0.396   0.090  0.00  0.00    +0.277 C 
ATOM     24  O   UNL     1       2.349   0.570  -0.285  0.00  0.00    -0.491 OA
ENDBRANCH  17  24
BRANCH  18  25
ATOM     25  O   UNL     1       1.634   0.637   2.546  0.00  0.00    -0.491 OA
ATOM     26  C   UNL     1       1.575   0.367   3.942  0.00  0.00    +0.277 C 
ENDBRANCH  18  25
ENDBRANCH  15  20
ENDBRANCH   1  16
TORSDOF 8
