REMARK  Name = opt19.xyz
REMARK  16 active torsions:
REMARK  status: ('A' for Active; 'I' for Inactive)
REMARK    1  A    between atoms: C_2  and  O_25
REMARK    2  A    between atoms: C_3  and  O_24
REMARK    3  A    between atoms: C_4  and  O_11
REMARK    4  A    between atoms: C_6  and  C_7
REMARK    5  A    between atoms: C_6  and  O_10
REMARK    6  A    between atoms: C_7  and  O_9
REMARK    7  A    between atoms: O_11  and  C_12
REMARK    8  A    between atoms: C_12  and  C_14
REMARK    9  A    between atoms: C_15  and  C_16
REMARK   10  A    between atoms: C_18  and  O_23
REMARK   11  A    between atoms: C_20  and  O_22
REMARK   12  A    between atoms: O_25  and  C_26
REMARK   13  A    between atoms: C_26  and  C_28
REMARK   14  A    between atoms: C_29  and  C_30
REMARK   15  A    between atoms: C_32  and  O_37
REMARK   16  A    between atoms: C_33  and  O_36
REMARK                            x       y       z     vdW  Elec       q    Type
REMARK                         _______ _______ _______ _____ _____    ______ ____
ROOT
ATOM      1  C   UNL     1       0.673   1.340  -0.079  0.00  0.00    +0.093 C 
ATOM      2  C   UNL     1       1.535   0.131   0.311  0.00  0.00    +0.212 C 
ATOM      3  C   UNL     1       0.876  -1.170  -0.189  0.00  0.00    +0.196 C 
ATOM      4  C   UNL     1      -0.562  -1.353   0.351  0.00  0.00    +0.212 C 
ATOM      5  C   UNL     1      -1.427  -0.152  -0.051  0.00  0.00    +0.093 C 
ATOM      6  C   UNL     1      -0.812   1.213   0.292  0.00  0.00    +0.169 C 
ENDROOT
BRANCH   6   7
ATOM      7  O   UNL     1      -1.540   2.209  -0.495  0.00  0.00    -0.377 OA
ATOM      8  H   UNL     1      -1.317   2.072  -1.435  0.00  0.00    +0.211 HD
ENDBRANCH   6   7
BRANCH   6   9
ATOM      9  C   UNL     1      -1.085   1.639   1.762  0.00  0.00    +0.337 C 
ATOM     10  O   UNL     1      -0.677   1.093   2.774  0.00  0.00    -0.248 OA
BRANCH   9  11
ATOM     11  O   UNL     1      -1.873   2.747   1.815  0.00  0.00    -0.479 OA
ATOM     12  H   UNL     1      -2.066   3.002   0.879  0.00  0.00    +0.295 HD
ENDBRANCH   9  11
ENDBRANCH   6   9
BRANCH   3  13
ATOM     13  O   UNL     1       1.740  -2.275   0.082  0.00  0.00    -0.384 OA
ATOM     14  H   UNL     1       1.220  -3.015   0.462  0.00  0.00    +0.210 HD
ENDBRANCH   3  13
BRANCH   4  15
ATOM     15  O   UNL     1      -0.624  -1.447   1.783  0.00  0.00    -0.455 OA
BRANCH  15  16
ATOM     16  C   UNL     1      -0.242  -2.610   2.351  0.00  0.00    +0.332 C 
ATOM     17  O   UNL     1       0.095  -3.619   1.752  0.00  0.00    -0.246 OA
BRANCH  16  18
ATOM     18  C   UNL     1      -0.261  -2.428   3.813  0.00  0.00    +0.092 C 
ATOM     19  C   UNL     1       0.137  -3.422   4.622  0.00  0.00    +0.015 C 
BRANCH  19  20
ATOM     20  C   UNL     1       0.200  -3.304   6.085  0.00  0.00    -0.018 A 
ATOM     21  C   UNL     1      -0.757  -2.592   6.823  0.00  0.00    +0.053 A 
ATOM     22  C   UNL     1      -0.662  -2.537   8.214  0.00  0.00    +0.121 A 
ATOM     23  C   UNL     1       0.364  -3.185   8.890  0.00  0.00    +0.090 A 
ATOM     24  C   UNL     1       1.305  -3.896   8.157  0.00  0.00    +0.121 A 
ATOM     25  C   UNL     1       1.228  -3.966   6.769  0.00  0.00    +0.053 A 
BRANCH  24  26
ATOM     26  O   UNL     1       2.339  -4.542   8.770  0.00  0.00    -0.507 OA
ATOM     27  H   UNL     1       2.192  -4.516   9.731  0.00  0.00    +0.292 HD
ENDBRANCH  24  26
BRANCH  22  28
ATOM     28  O   UNL     1      -1.573  -1.850   8.961  0.00  0.00    -0.507 OA
ATOM     29  H   UNL     1      -2.180  -1.379   8.365  0.00  0.00    +0.292 HD
ENDBRANCH  22  28
ENDBRANCH  19  20
ENDBRANCH  16  18
ENDBRANCH  15  16
ENDBRANCH   4  15
BRANCH   2  30
ATOM     30  O   UNL     1       1.711   0.060   1.737  0.00  0.00    -0.455 OA
BRANCH  30  31
ATOM     31  C   UNL     1       2.589   0.939   2.278  0.00  0.00    +0.332 C 
ATOM     32  O   UNL     1       3.265   1.753   1.670  0.00  0.00    -0.246 OA
BRANCH  31  33
ATOM     33  C   UNL     1       2.545   0.783   3.744  0.00  0.00    +0.092 C 
ATOM     34  C   UNL     1       3.197   1.654   4.528  0.00  0.00    +0.015 C 
BRANCH  34  35
ATOM     35  C   UNL     1       3.147   1.616   5.995  0.00  0.00    -0.021 A 
ATOM     36  C   UNL     1       3.228   0.414   6.715  0.00  0.00    +0.057 A 
ATOM     37  C   UNL     1       3.204   0.445   8.106  0.00  0.00    +0.159 A 
ATOM     38  C   UNL     1       3.113   1.659   8.783  0.00  0.00    +0.158 A 
ATOM     39  C   UNL     1       3.040   2.855   8.088  0.00  0.00    +0.050 A 
ATOM     40  C   UNL     1       3.062   2.833   6.692  0.00  0.00    +0.012 A 
BRANCH  38  41
ATOM     41  O   UNL     1       3.099   1.679  10.148  0.00  0.00    -0.503 OA
ATOM     42  H   UNL     1       3.169   0.738  10.404  0.00  0.00    +0.292 HD
ENDBRANCH  38  41
BRANCH  37  43
ATOM     43  O   UNL     1       3.274  -0.698   8.857  0.00  0.00    -0.503 OA
ATOM     44  H   UNL     1       3.241  -1.462   8.253  0.00  0.00    +0.292 HD
ENDBRANCH  37  43
ENDBRANCH  34  35
ENDBRANCH  31  33
ENDBRANCH  30  31
ENDBRANCH   2  30
TORSDOF 16
