REMARK  Name = opt28.xyz
REMARK  18 active torsions:
REMARK  status: ('A' for Active; 'I' for Inactive)
REMARK    1  A    between atoms: C_1  and  O_2
REMARK    2  A    between atoms: O_2  and  C_3
REMARK    3  A    between atoms: C_5  and  O_44
REMARK    4  A    between atoms: C_8  and  O_9
REMARK    5  A    between atoms: O_9  and  C_10
REMARK    6  A    between atoms: C_10  and  C_11
REMARK    7  A    between atoms: C_13  and  O_14
REMARK    8  A    between atoms: O_14  and  C_15
REMARK    9  A    between atoms: C_15  and  C_17
REMARK   10  A    between atoms: C_19  and  O_25
REMARK   11  A    between atoms: C_20  and  O_21
REMARK   12  A    between atoms: C_22  and  O_24
REMARK   13  A    between atoms: C_26  and  O_27
REMARK   14  A    between atoms: C_28  and  O_29
REMARK   15  A    between atoms: C_30  and  O_31
REMARK   16  A    between atoms: C_32  and  C_36
REMARK   17  A    between atoms: C_38  and  O_43
REMARK   18  A    between atoms: C_39  and  O_40
REMARK                            x       y       z     vdW  Elec       q    Type
REMARK                         _______ _______ _______ _____ _____    ______ ____
ROOT
ATOM      1  C   UNL     1       8.421   7.683   1.913  0.00  0.00    +0.191 C 
ATOM      2  O   UNL     1       7.734   8.485   2.891  0.00  0.00    -0.330 OA
ATOM      3  C   UNL     1       6.816   9.446   2.368  0.00  0.00    +0.343 C 
ATOM      4  C   UNL     1       7.512  10.400   1.371  0.00  0.00    +0.214 C 
ATOM      5  C   UNL     1       8.269   9.623   0.300  0.00  0.00    +0.180 C 
ATOM      6  C   UNL     1       9.200   8.583   0.941  0.00  0.00    +0.178 C 
ENDROOT
BRANCH   6   7
ATOM      7  O   UNL     1       9.833   7.822  -0.090  0.00  0.00    -0.386 OA
ATOM      8  H   UNL     1      10.168   8.483  -0.731  0.00  0.00    +0.210 HD
ENDBRANCH   6   7
BRANCH   5   9
ATOM      9  O   UNL     1       9.072  10.519  -0.489  0.00  0.00    -0.386 OA
ATOM     10  H   UNL     1       9.379  11.206   0.141  0.00  0.00    +0.210 HD
ENDBRANCH   5   9
BRANCH   4  11
ATOM     11  O   UNL     1       8.483  11.241   2.039  0.00  0.00    -0.383 OA
ATOM     12  H   UNL     1       8.124  11.411   2.933  0.00  0.00    +0.210 HD
ENDBRANCH   4  11
BRANCH   3  13
ATOM     13  O   UNL     1       6.381  10.288   3.452  0.00  0.00    -0.429 OA
BRANCH  13  14
ATOM     14  C   UNL     1       5.382   9.821   4.231  0.00  0.00    +0.342 C 
ATOM     15  O   UNL     1       4.679   8.846   4.030  0.00  0.00    -0.245 OA
BRANCH  14  16
ATOM     16  C   UNL     1       5.291  10.663   5.454  0.00  0.00    +0.066 A 
ATOM     17  C   UNL     1       4.651  10.121   6.583  0.00  0.00    +0.064 A 
ATOM     18  C   UNL     1       4.595  10.866   7.758  0.00  0.00    +0.163 A 
ATOM     19  C   UNL     1       5.161  12.135   7.811  0.00  0.00    +0.201 A 
ATOM     20  C   UNL     1       5.778  12.674   6.691  0.00  0.00    +0.163 A 
ATOM     21  C   UNL     1       5.846  11.952   5.507  0.00  0.00    +0.064 A 
BRANCH  20  22
ATOM     22  O   UNL     1       6.333  13.919   6.744  0.00  0.00    -0.503 OA
ATOM     23  H   UNL     1       6.178  14.223   7.662  0.00  0.00    +0.292 HD
ENDBRANCH  20  22
BRANCH  19  24
ATOM     24  O   UNL     1       5.124  12.868   8.965  0.00  0.00    -0.501 OA
ATOM     25  H   UNL     1       4.659  12.291   9.606  0.00  0.00    +0.292 HD
ENDBRANCH  19  24
BRANCH  18  26
ATOM     26  O   UNL     1       4.004  10.388   8.893  0.00  0.00    -0.503 OA
ATOM     27  H   UNL     1       3.661   9.494   8.714  0.00  0.00    +0.292 HD
ENDBRANCH  18  26
ENDBRANCH  14  16
ENDBRANCH  13  14
ENDBRANCH   3  13
BRANCH   1  28
ATOM     28  C   UNL     1       7.501   6.698   1.165  0.00  0.00    +0.263 C 
BRANCH  28  29
ATOM     29  O   UNL     1       6.750   5.911   2.095  0.00  0.00    -0.489 OA
BRANCH  29  35
ATOM     30  C   UNL     1       3.151   0.850   0.489  0.00  0.00    +0.127 A 
ATOM     31  C   UNL     1       3.761   0.602   1.718  0.00  0.00    +0.091 A 
ATOM     32  C   UNL     1       4.605   1.568   2.279  0.00  0.00    +0.131 A 
ATOM     33  C   UNL     1       4.853   2.786   1.629  0.00  0.00    +0.062 A 
ATOM     34  C   UNL     1       5.740   3.800   2.187  0.00  0.00    +0.060 C 
ATOM     35  C   UNL     1       5.924   4.944   1.521  0.00  0.00    +0.143 C 
ATOM     36  C   UNL     1       5.194   5.224   0.208  0.00  0.00    +0.268 C 
ATOM     37  O   UNL     1       4.375   4.168  -0.322  0.00  0.00    -0.476 OA
ATOM     38  C   UNL     1       4.232   3.022   0.403  0.00  0.00    +0.136 A 
ATOM     39  C   UNL     1       3.397   2.057  -0.165  0.00  0.00    +0.092 A 
BRANCH  36  40
ATOM     40  C   UNL     1       4.320   6.477   0.222  0.00  0.00    +0.004 A 
ATOM     41  C   UNL     1       3.718   6.953   1.399  0.00  0.00    +0.056 A 
ATOM     42  C   UNL     1       2.972   8.125   1.369  0.00  0.00    +0.159 A 
ATOM     43  C   UNL     1       2.769   8.808   0.176  0.00  0.00    +0.158 A 
ATOM     44  C   UNL     1       3.330   8.347  -1.003  0.00  0.00    +0.049 A 
ATOM     45  C   UNL     1       4.105   7.184  -0.980  0.00  0.00    +0.011 A 
BRANCH  43  46
ATOM     46  O   UNL     1       2.032   9.956   0.168  0.00  0.00    -0.503 OA
ATOM     47  H   UNL     1       1.691  10.029   1.083  0.00  0.00    +0.292 HD
ENDBRANCH  43  46
BRANCH  42  48
ATOM     48  O   UNL     1       2.465   8.668   2.518  0.00  0.00    -0.503 OA
ATOM     49  H   UNL     1       3.102   8.434   3.231  0.00  0.00    +0.292 HD
ENDBRANCH  42  48
ENDBRANCH  36  40
BRANCH  30  51
ATOM     50  C   UNL     1       1.810  -1.113   0.547  0.00  0.00    +0.277 C 
ATOM     51  O   UNL     1       2.315  -0.001  -0.181  0.00  0.00    -0.495 OA
ENDBRANCH  30  51
BRANCH  32  52
ATOM     52  O   UNL     1       5.204   1.321   3.488  0.00  0.00    -0.506 OA
ATOM     53  H   UNL     1       4.937   0.442   3.804  0.00  0.00    +0.292 HD
ENDBRANCH  32  52
ENDBRANCH  29  35
ENDBRANCH  28  29
ENDBRANCH   1  28
TORSDOF 17
