REMARK  Name = opt27.xyz
REMARK  13 active torsions:
REMARK  status: ('A' for Active; 'I' for Inactive)
REMARK    1  A    between atoms: C_1  and  O_2
REMARK    2  A    between atoms: O_2  and  C_3
REMARK    3  A    between atoms: C_5  and  O_33
REMARK    4  A    between atoms: C_8  and  O_9
REMARK    5  A    between atoms: O_9  and  C_10
REMARK    6  A    between atoms: C_12  and  C_13
REMARK    7  A    between atoms: C_13  and  O_14
REMARK    8  A    between atoms: C_15  and  O_16
REMARK    9  A    between atoms: C_17  and  O_18
REMARK   10  A    between atoms: C_19  and  O_20
REMARK   11  A    between atoms: C_21  and  C_25
REMARK   12  A    between atoms: C_27  and  O_32
REMARK   13  A    between atoms: C_28  and  O_29
REMARK                            x       y       z     vdW  Elec       q    Type
REMARK                         _______ _______ _______ _____ _____    ______ ____
ROOT
ATOM      1  C   UNL     1       2.676  -1.168   0.192  0.00  0.00    +0.127 A 
ATOM      2  C   UNL     1       3.633  -0.850   1.159  0.00  0.00    +0.092 A 
ATOM      3  C   UNL     1       4.302  -1.856   1.861  0.00  0.00    +0.136 A 
ATOM      4  O   UNL     1       5.182  -1.428   2.813  0.00  0.00    -0.476 OA
ATOM      5  C   UNL     1       5.970  -2.403   3.531  0.00  0.00    +0.269 C 
ATOM      6  C   UNL     1       5.588  -3.861   3.303  0.00  0.00    +0.147 C 
ATOM      7  C   UNL     1       4.674  -4.225   2.398  0.00  0.00    +0.060 C 
ATOM      8  C   UNL     1       4.027  -3.197   1.597  0.00  0.00    +0.062 A 
ATOM      9  C   UNL     1       3.089  -3.511   0.604  0.00  0.00    +0.131 A 
ATOM     10  C   UNL     1       2.416  -2.507  -0.100  0.00  0.00    +0.091 A 
ENDROOT
BRANCH   5  11
ATOM     11  C   UNL     1       6.001  -1.914   4.980  0.00  0.00    +0.004 A 
ATOM     12  C   UNL     1       5.382  -2.597   6.043  0.00  0.00    +0.056 A 
ATOM     13  C   UNL     1       5.499  -2.115   7.344  0.00  0.00    +0.159 A 
ATOM     14  C   UNL     1       6.176  -0.928   7.601  0.00  0.00    +0.158 A 
ATOM     15  C   UNL     1       6.754  -0.208   6.570  0.00  0.00    +0.049 A 
ATOM     16  C   UNL     1       6.671  -0.703   5.266  0.00  0.00    +0.011 A 
BRANCH  13  17
ATOM     17  O   UNL     1       4.968  -2.789   8.410  0.00  0.00    -0.503 OA
ATOM     18  H   UNL     1       4.644  -3.646   8.083  0.00  0.00    +0.292 HD
ENDBRANCH  13  17
BRANCH  14  19
ATOM     19  O   UNL     1       6.279  -0.466   8.882  0.00  0.00    -0.503 OA
ATOM     20  H   UNL     1       5.814  -1.141   9.417  0.00  0.00    +0.292 HD
ENDBRANCH  14  19
ENDBRANCH   5  11
BRANCH   1  22
ATOM     21  C   UNL     1       0.873  -0.347  -1.116  0.00  0.00    +0.277 C 
ATOM     22  O   UNL     1       2.077  -0.092  -0.402  0.00  0.00    -0.495 OA
ENDBRANCH   1  22
BRANCH   9  23
ATOM     23  O   UNL     1       2.822  -4.827   0.327  0.00  0.00    -0.506 OA
ATOM     24  H   UNL     1       2.156  -4.876  -0.379  0.00  0.00    +0.292 HD
ENDBRANCH   9  23
BRANCH   6  25
ATOM     25  O   UNL     1       6.091  -4.820   4.163  0.00  0.00    -0.461 OA
BRANCH  25  26
ATOM     26  C   UNL     1       7.443  -5.228   3.907  0.00  0.00    +0.339 C 
ATOM     27  C   UNL     1       8.089  -5.643   5.244  0.00  0.00    +0.214 C 
ATOM     28  C   UNL     1       7.310  -6.828   5.830  0.00  0.00    +0.180 C 
ATOM     29  C   UNL     1       7.234  -7.974   4.811  0.00  0.00    +0.177 C 
ATOM     30  C   UNL     1       6.695  -7.459   3.462  0.00  0.00    +0.179 C 
ATOM     31  O   UNL     1       7.487  -6.346   2.998  0.00  0.00    -0.331 OA
BRANCH  27  32
ATOM     32  O   UNL     1       8.125  -4.567   6.185  0.00  0.00    -0.383 OA
ATOM     33  H   UNL     1       8.274  -4.981   7.058  0.00  0.00    +0.210 HD
ENDBRANCH  27  32
BRANCH  28  34
ATOM     34  O   UNL     1       7.975  -7.263   7.029  0.00  0.00    -0.386 OA
ATOM     35  H   UNL     1       8.572  -7.988   6.750  0.00  0.00    +0.210 HD
ENDBRANCH  28  34
BRANCH  29  36
ATOM     36  O   UNL     1       8.566  -8.515   4.684  0.00  0.00    -0.386 OA
ATOM     37  H   UNL     1       9.009  -8.046   3.952  0.00  0.00    +0.210 HD
ENDBRANCH  29  36
BRANCH  30  38
ATOM     38  C   UNL     1       6.701  -8.541   2.377  0.00  0.00    +0.190 C 
BRANCH  38  39
ATOM     39  O   UNL     1       5.816  -9.598   2.723  0.00  0.00    -0.392 OA
ATOM     40  H   UNL     1       5.869 -10.258   2.010  0.00  0.00    +0.210 HD
ENDBRANCH  38  39
ENDBRANCH  30  38
ENDBRANCH  25  26
ENDBRANCH   6  25
TORSDOF 12
