REMARK  Name = opt24.xyz
REMARK  16 active torsions:
REMARK  status: ('A' for Active; 'I' for Inactive)
REMARK    1  A    between atoms: C_4  and  O_43
REMARK    2  A    between atoms: C_6  and  O_31
REMARK    3  A    between atoms: C_10  and  C_11
REMARK    4  A    between atoms: C_13  and  O_30
REMARK    5  A    between atoms: C_14  and  O_18
REMARK    6  A    between atoms: C_15  and  O_17
REMARK    7  A    between atoms: O_18  and  C_19
REMARK    8  A    between atoms: C_19  and  C_21
REMARK    9  A    between atoms: C_23  and  O_29
REMARK   10  A    between atoms: C_24  and  O_28
REMARK   11  A    between atoms: C_25  and  O_27
REMARK   12  A    between atoms: O_31  and  C_32
REMARK   13  A    between atoms: C_32  and  C_34
REMARK   14  A    between atoms: C_36  and  O_42
REMARK   15  A    between atoms: C_37  and  O_41
REMARK   16  A    between atoms: C_38  and  O_40
REMARK                            x       y       z     vdW  Elec       q    Type
REMARK                         _______ _______ _______ _____ _____    ______ ____
ROOT
ATOM      1  C   UNL     1      -2.507   0.787  -0.240  0.00  0.00    +0.054 C 
ATOM      2  C   UNL     1      -2.434  -0.561   0.472  0.00  0.00    +0.204 C 
ATOM      3  O   UNL     1      -1.289  -1.305   0.038  0.00  0.00    -0.484 OA
ATOM      4  C   UNL     1      -0.107  -0.614   0.049  0.00  0.00    +0.132 A 
ATOM      5  C   UNL     1      -0.023   0.786   0.105  0.00  0.00    +0.036 A 
ATOM      6  C   UNL     1       1.253   1.367   0.128  0.00  0.00    +0.127 A 
ATOM      7  C   UNL     1       2.405   0.586   0.054  0.00  0.00    +0.092 A 
ATOM      8  C   UNL     1       2.292  -0.799  -0.021  0.00  0.00    +0.139 A 
ATOM      9  C   UNL     1       1.041  -1.405  -0.042  0.00  0.00    +0.092 A 
ATOM     10  C   UNL     1      -1.283   1.609   0.151  0.00  0.00    +0.046 C 
ENDROOT
BRANCH   2  11
ATOM     11  C   UNL     1      -3.641  -1.444   0.213  0.00  0.00    -0.000 A 
ATOM     12  C   UNL     1      -4.367  -1.981   1.294  0.00  0.00    +0.056 A 
ATOM     13  C   UNL     1      -5.397  -2.895   1.065  0.00  0.00    +0.163 A 
ATOM     14  C   UNL     1      -5.727  -3.261  -0.239  0.00  0.00    +0.214 A 
ATOM     15  C   UNL     1      -5.021  -2.729  -1.314  0.00  0.00    +0.163 A 
ATOM     16  C   UNL     1      -3.989  -1.823  -1.097  0.00  0.00    +0.056 A 
BRANCH  15  17
ATOM     17  O   UNL     1      -5.283  -3.105  -2.601  0.00  0.00    -0.503 OA
ATOM     18  H   UNL     1      -5.981  -3.782  -2.559  0.00  0.00    +0.292 HD
ENDBRANCH  15  17
BRANCH  13  19
ATOM     19  O   UNL     1      -6.053  -3.480   2.112  0.00  0.00    -0.503 OA
ATOM     20  H   UNL     1      -5.779  -3.044   2.936  0.00  0.00    +0.292 HD
ENDBRANCH  13  19
BRANCH  14  21
ATOM     21  O   UNL     1      -6.644  -4.286  -0.496  0.00  0.00    -0.415 OA
BRANCH  21  22
ATOM     22  C   UNL     1      -7.954  -4.013  -0.156  0.00  0.00    +0.345 C 
ATOM     23  O   UNL     1      -8.443  -2.925   0.110  0.00  0.00    -0.245 OA
BRANCH  22  24
ATOM     24  C   UNL     1      -8.748  -5.271  -0.239  0.00  0.00    +0.067 A 
ATOM     25  C   UNL     1     -10.142  -5.185  -0.059  0.00  0.00    +0.064 A 
ATOM     26  C   UNL     1     -10.916  -6.338  -0.140  0.00  0.00    +0.163 A 
ATOM     27  C   UNL     1     -10.319  -7.566  -0.397  0.00  0.00    +0.201 A 
ATOM     28  C   UNL     1      -8.945  -7.653  -0.568  0.00  0.00    +0.163 A 
ATOM     29  C   UNL     1      -8.150  -6.518  -0.489  0.00  0.00    +0.064 A 
BRANCH  28  30
ATOM     30  O   UNL     1      -8.360  -8.860  -0.820  0.00  0.00    -0.503 OA
ATOM     31  H   UNL     1      -9.101  -9.501  -0.828  0.00  0.00    +0.292 HD
ENDBRANCH  28  30
BRANCH  27  32
ATOM     32  O   UNL     1     -11.072  -8.705  -0.484  0.00  0.00    -0.501 OA
ATOM     33  H   UNL     1     -11.991  -8.401  -0.331  0.00  0.00    +0.292 HD
ENDBRANCH  27  32
BRANCH  26  34
ATOM     34  O   UNL     1     -12.273  -6.314   0.024  0.00  0.00    -0.503 OA
ATOM     35  H   UNL     1     -12.546  -5.398   0.208  0.00  0.00    +0.292 HD
ENDBRANCH  26  34
ENDBRANCH  22  24
ENDBRANCH  21  22
ENDBRANCH  14  21
ENDBRANCH   2  11
BRANCH   6  36
ATOM     36  O   UNL     1       1.456   2.716   0.213  0.00  0.00    -0.506 OA
ATOM     37  H   UNL     1       0.611   3.170   0.348  0.00  0.00    +0.292 HD
ENDBRANCH   6  36
BRANCH   8  38
ATOM     38  O   UNL     1       3.487  -1.523  -0.171  0.00  0.00    -0.422 OA
BRANCH  38  39
ATOM     39  C   UNL     1       3.672  -2.686   0.556  0.00  0.00    +0.345 C 
ATOM     40  O   UNL     1       2.918  -3.172   1.385  0.00  0.00    -0.245 OA
BRANCH  39  41
ATOM     41  C   UNL     1       4.967  -3.317   0.180  0.00  0.00    +0.067 A 
ATOM     42  C   UNL     1       5.227  -4.614   0.663  0.00  0.00    +0.064 A 
ATOM     43  C   UNL     1       6.427  -5.240   0.341  0.00  0.00    +0.163 A 
ATOM     44  C   UNL     1       7.365  -4.586  -0.449  0.00  0.00    +0.201 A 
ATOM     45  C   UNL     1       7.110  -3.306  -0.923  0.00  0.00    +0.163 A 
ATOM     46  C   UNL     1       5.918  -2.661  -0.618  0.00  0.00    +0.064 A 
BRANCH  45  47
ATOM     47  O   UNL     1       8.036  -2.666  -1.694  0.00  0.00    -0.503 OA
ATOM     48  H   UNL     1       8.777  -3.301  -1.772  0.00  0.00    +0.292 HD
ENDBRANCH  45  47
BRANCH  44  49
ATOM     49  O   UNL     1       8.550  -5.190  -0.769  0.00  0.00    -0.501 OA
ATOM     50  H   UNL     1       8.502  -6.065  -0.331  0.00  0.00    +0.292 HD
ENDBRANCH  44  49
BRANCH  43  51
ATOM     51  O   UNL     1       6.731  -6.498   0.779  0.00  0.00    -0.503 OA
ATOM     52  H   UNL     1       5.986  -6.828   1.313  0.00  0.00    +0.292 HD
ENDBRANCH  43  51
ENDBRANCH  39  41
ENDBRANCH  38  39
ENDBRANCH   8  38
TORSDOF 16
