REMARK  Name = opt22.xyz
REMARK  17 active torsions:
REMARK  status: ('A' for Active; 'I' for Inactive)
REMARK    1  A    between atoms: C_1  and  O_2
REMARK    2  A    between atoms: O_2  and  C_3
REMARK    3  A    between atoms: C_4  and  O_38
REMARK    4  A    between atoms: C_7  and  C_9
REMARK    5  A    between atoms: C_10  and  C_11
REMARK    6  A    between atoms: C_11  and  O_13
REMARK    7  A    between atoms: O_13  and  C_14
REMARK    8  A    between atoms: C_16  and  C_34
REMARK    9  A    between atoms: C_16  and  O_37
REMARK   10  A    between atoms: C_18  and  O_21
REMARK   11  A    between atoms: C_19  and  O_20
REMARK   12  A    between atoms: O_21  and  C_22
REMARK   13  A    between atoms: C_22  and  C_24
REMARK   14  A    between atoms: C_25  and  C_26
REMARK   15  A    between atoms: C_28  and  O_33
REMARK   16  A    between atoms: C_29  and  O_32
REMARK   17  A    between atoms: C_34  and  O_36
REMARK                            x       y       z     vdW  Elec       q    Type
REMARK                         _______ _______ _______ _____ _____    ______ ____
ROOT
ATOM      1  C   UNL     1      10.882   4.196  -0.021  0.00  0.00    +0.212 C 
ATOM      2  C   UNL     1      11.471   3.314   1.093  0.00  0.00    +0.196 C 
ATOM      3  C   UNL     1      11.242   1.820   0.793  0.00  0.00    +0.212 C 
ATOM      4  C   UNL     1      11.871   1.444  -0.552  0.00  0.00    +0.093 C 
ATOM      5  C   UNL     1      11.419   2.332  -1.711  0.00  0.00    +0.169 C 
ATOM      6  C   UNL     1      11.485   3.830  -1.381  0.00  0.00    +0.093 C 
ENDROOT
BRANCH   5   7
ATOM      7  O   UNL     1      12.316   2.111  -2.831  0.00  0.00    -0.377 OA
ATOM      8  H   UNL     1      12.541   1.159  -2.848  0.00  0.00    +0.211 HD
ENDBRANCH   5   7
BRANCH   5   9
ATOM      9  C   UNL     1      10.018   1.945  -2.231  0.00  0.00    +0.337 C 
ATOM     10  O   UNL     1       9.059   1.646  -1.540  0.00  0.00    -0.248 OA
BRANCH   9  11
ATOM     11  O   UNL     1       9.966   1.983  -3.588  0.00  0.00    -0.479 OA
ATOM     12  H   UNL     1      10.854   2.245  -3.928  0.00  0.00    +0.295 HD
ENDBRANCH   9  11
ENDBRANCH   5   9
BRANCH   2  13
ATOM     13  O   UNL     1      10.861   3.663   2.343  0.00  0.00    -0.384 OA
ATOM     14  H   UNL     1       9.896   3.594   2.218  0.00  0.00    +0.210 HD
ENDBRANCH   2  13
BRANCH   3  15
ATOM     15  O   UNL     1      11.864   1.042   1.841  0.00  0.00    -0.455 OA
BRANCH  15  16
ATOM     16  C   UNL     1      11.335  -0.193   2.025  0.00  0.00    +0.332 C 
ATOM     17  O   UNL     1      10.463  -0.712   1.349  0.00  0.00    -0.246 OA
BRANCH  16  18
ATOM     18  C   UNL     1      11.993  -0.827   3.182  0.00  0.00    +0.092 C 
ATOM     19  C   UNL     1      11.607  -2.059   3.545  0.00  0.00    +0.015 C 
BRANCH  19  20
ATOM     20  C   UNL     1      12.211  -2.767   4.671  0.00  0.00    -0.021 A 
ATOM     21  C   UNL     1      11.717  -2.582   5.969  0.00  0.00    +0.057 A 
ATOM     22  C   UNL     1      12.286  -3.294   7.018  0.00  0.00    +0.159 A 
ATOM     23  C   UNL     1      13.339  -4.177   6.783  0.00  0.00    +0.158 A 
ATOM     24  C   UNL     1      13.841  -4.361   5.504  0.00  0.00    +0.050 A 
ATOM     25  C   UNL     1      13.274  -3.653   4.443  0.00  0.00    +0.012 A 
BRANCH  23  26
ATOM     26  O   UNL     1      13.885  -4.878   7.820  0.00  0.00    -0.503 OA
ATOM     27  H   UNL     1      13.370  -4.598   8.603  0.00  0.00    +0.292 HD
ENDBRANCH  23  26
BRANCH  22  28
ATOM     28  O   UNL     1      11.840  -3.168   8.305  0.00  0.00    -0.503 OA
ATOM     29  H   UNL     1      11.099  -2.538   8.309  0.00  0.00    +0.292 HD
ENDBRANCH  22  28
ENDBRANCH  19  20
ENDBRANCH  16  18
ENDBRANCH  15  16
ENDBRANCH   3  15
BRANCH   1  30
ATOM     30  O   UNL     1       9.453   3.984  -0.009  0.00  0.00    -0.455 OA
BRANCH  30  31
ATOM     31  C   UNL     1       8.682   4.947  -0.571  0.00  0.00    +0.332 C 
ATOM     32  O   UNL     1       9.081   5.969  -1.097  0.00  0.00    -0.246 OA
BRANCH  31  34
ATOM     33  C   UNL     1       6.294   5.416  -0.711  0.00  0.00    +0.015 C 
ATOM     34  C   UNL     1       7.269   4.548  -0.405  0.00  0.00    +0.092 C 
BRANCH  33  37
ATOM     35  C   UNL     1       2.942   4.294   0.689  0.00  0.00    +0.162 A 
ATOM     36  C   UNL     1       4.327   4.437   0.527  0.00  0.00    +0.057 A 
ATOM     37  C   UNL     1       4.856   5.148  -0.562  0.00  0.00    -0.021 A 
ATOM     38  C   UNL     1       3.974   5.710  -1.493  0.00  0.00    +0.012 A 
ATOM     39  C   UNL     1       2.593   5.579  -1.334  0.00  0.00    +0.050 A 
ATOM     40  C   UNL     1       2.085   4.903  -0.229  0.00  0.00    +0.158 A 
BRANCH  40  41
ATOM     41  O   UNL     1       0.732   4.949  -0.059  0.00  0.00    -0.503 OA
ATOM     42  H   UNL     1       0.587   5.007   0.902  0.00  0.00    +0.292 HD
ENDBRANCH  40  41
BRANCH  35  44
ATOM     43  C   UNL     1       1.457   2.717   1.644  0.00  0.00    +0.277 C 
ATOM     44  O   UNL     1       2.544   3.625   1.817  0.00  0.00    -0.491 OA
ENDBRANCH  35  44
ENDBRANCH  33  37
ENDBRANCH  31  34
ENDBRANCH  30  31
ENDBRANCH   1  30
TORSDOF 16
