REMARK  Name = opt21.xyz
REMARK  17 active torsions:
REMARK  status: ('A' for Active; 'I' for Inactive)
REMARK    1  A    between atoms: C_1  and  O_2
REMARK    2  A    between atoms: O_2  and  C_3
REMARK    3  A    between atoms: C_4  and  O_5
REMARK    4  A    between atoms: C_8  and  C_9
REMARK    5  A    between atoms: C_10  and  C_11
REMARK    6  A    between atoms: C_11  and  O_13
REMARK    7  A    between atoms: O_13  and  C_14
REMARK    8  A    between atoms: C_16  and  O_17
REMARK    9  A    between atoms: C_16  and  C_35
REMARK   10  A    between atoms: C_19  and  O_20
REMARK   11  A    between atoms: C_21  and  O_22
REMARK   12  A    between atoms: O_22  and  C_23
REMARK   13  A    between atoms: C_23  and  C_25
REMARK   14  A    between atoms: C_26  and  C_27
REMARK   15  A    between atoms: C_29  and  O_30
REMARK   16  A    between atoms: C_31  and  O_32
REMARK   17  A    between atoms: C_35  and  O_36
REMARK                            x       y       z     vdW  Elec       q    Type
REMARK                         _______ _______ _______ _____ _____    ______ ____
ROOT
ATOM      1  C   UNL     1       7.076   6.995   0.189  0.00  0.00    +0.223 C 
ATOM      2  C   UNL     1       6.266   7.416   1.420  0.00  0.00    +0.095 C 
ATOM      3  C   UNL     1       4.938   6.649   1.530  0.00  0.00    +0.168 C 
ATOM      4  C   UNL     1       4.086   6.807   0.271  0.00  0.00    +0.081 C 
ATOM      5  C   UNL     1       4.840   6.394  -0.992  0.00  0.00    +0.162 C 
ATOM      6  C   UNL     1       6.217   7.092  -1.095  0.00  0.00    +0.246 C 
ENDROOT
BRANCH   5   7
ATOM      7  O   UNL     1       4.039   6.710  -2.138  0.00  0.00    -0.388 OA
ATOM      8  H   UNL     1       3.884   7.670  -2.159  0.00  0.00    +0.210 HD
ENDBRANCH   5   7
BRANCH   3   9
ATOM      9  O   UNL     1       5.171   5.248   1.782  0.00  0.00    -0.377 OA
ATOM     10  H   UNL     1       5.871   4.936   1.170  0.00  0.00    +0.211 HD
ENDBRANCH   3   9
BRANCH   3  11
ATOM     11  C   UNL     1       4.151   7.183   2.736  0.00  0.00    +0.337 C 
ATOM     12  O   UNL     1       3.796   8.343   2.882  0.00  0.00    -0.248 OA
BRANCH  11  13
ATOM     13  O   UNL     1       3.882   6.199   3.632  0.00  0.00    -0.479 OA
ATOM     14  H   UNL     1       4.274   5.366   3.269  0.00  0.00    +0.295 HD
ENDBRANCH  11  13
ENDBRANCH   3  11
BRANCH   6  15
ATOM     15  O   UNL     1       6.943   6.725  -2.300  0.00  0.00    -0.452 OA
BRANCH  15  16
ATOM     16  C   UNL     1       7.154   5.410  -2.558  0.00  0.00    +0.332 C 
ATOM     17  O   UNL     1       6.941   4.480  -1.802  0.00  0.00    -0.246 OA
BRANCH  16  18
ATOM     18  C   UNL     1       7.665   5.283  -3.941  0.00  0.00    +0.092 C 
ATOM     19  C   UNL     1       7.456   4.200  -4.710  0.00  0.00    +0.015 C 
BRANCH  19  20
ATOM     20  C   UNL     1       6.659   3.041  -4.297  0.00  0.00    -0.021 A 
ATOM     21  C   UNL     1       7.256   1.989  -3.587  0.00  0.00    +0.012 A 
ATOM     22  C   UNL     1       6.476   0.945  -3.084  0.00  0.00    +0.050 A 
ATOM     23  C   UNL     1       5.107   0.959  -3.303  0.00  0.00    +0.158 A 
ATOM     24  C   UNL     1       4.509   1.990  -4.024  0.00  0.00    +0.159 A 
ATOM     25  C   UNL     1       5.276   3.036  -4.527  0.00  0.00    +0.057 A 
BRANCH  24  26
ATOM     26  O   UNL     1       3.152   1.942  -4.195  0.00  0.00    -0.503 OA
ATOM     27  H   UNL     1       2.878   2.754  -4.656  0.00  0.00    +0.292 HD
ENDBRANCH  24  26
BRANCH  23  28
ATOM     28  O   UNL     1       4.338  -0.043  -2.785  0.00  0.00    -0.503 OA
ATOM     29  H   UNL     1       3.424   0.198  -3.037  0.00  0.00    +0.292 HD
ENDBRANCH  23  28
ENDBRANCH  19  20
ENDBRANCH  16  18
ENDBRANCH  15  16
ENDBRANCH   6  15
BRANCH   1  30
ATOM     30  O   UNL     1       7.523   5.642   0.406  0.00  0.00    -0.454 OA
BRANCH  30  31
ATOM     31  C   UNL     1       8.754   5.492   0.964  0.00  0.00    +0.332 C 
ATOM     32  O   UNL     1       9.433   6.388   1.428  0.00  0.00    -0.246 OA
BRANCH  31  34
ATOM     33  C   UNL     1      10.312   3.496   1.035  0.00  0.00    +0.015 C 
ATOM     34  C   UNL     1       9.099   4.055   0.889  0.00  0.00    +0.092 C 
BRANCH  33  39
ATOM     35  C   UNL     1      13.306   5.805   0.777  0.00  0.00    +0.162 A 
ATOM     36  C   UNL     1      14.133   5.256   1.757  0.00  0.00    +0.158 A 
ATOM     37  C   UNL     1      13.745   4.117   2.447  0.00  0.00    +0.050 A 
ATOM     38  C   UNL     1      12.489   3.556   2.200  0.00  0.00    +0.012 A 
ATOM     39  C   UNL     1      11.614   4.137   1.267  0.00  0.00    -0.021 A 
ATOM     40  C   UNL     1      12.047   5.252   0.537  0.00  0.00    +0.057 A 
BRANCH  36  41
ATOM     41  O   UNL     1      15.320   5.838   2.095  0.00  0.00    -0.503 OA
ATOM     42  H   UNL     1      15.251   6.764   1.798  0.00  0.00    +0.292 HD
ENDBRANCH  36  41
BRANCH  35  44
ATOM     43  C   UNL     1      14.742   6.677  -0.822  0.00  0.00    +0.277 C 
ATOM     44  O   UNL     1      13.658   6.928   0.076  0.00  0.00    -0.491 OA
ENDBRANCH  35  44
ENDBRANCH  33  39
ENDBRANCH  31  34
ENDBRANCH  30  31
ENDBRANCH   1  30
TORSDOF 16
