REMARK  Name = opt26.xyz
REMARK  12 active torsions:
REMARK  status: ('A' for Active; 'I' for Inactive)
REMARK    1  A    between atoms: C_3  and  O_32
REMARK    2  A    between atoms: C_4  and  O_31
REMARK    3  A    between atoms: C_6  and  C_7
REMARK    4  A    between atoms: C_11  and  O_30
REMARK    5  A    between atoms: C_13  and  O_29
REMARK    6  A    between atoms: C_16  and  O_17
REMARK    7  A    between atoms: O_17  and  C_18
REMARK    8  A    between atoms: C_19  and  O_28
REMARK    9  A    between atoms: C_20  and  O_27
REMARK   10  A    between atoms: C_21  and  O_26
REMARK   11  A    between atoms: C_22  and  C_24
REMARK   12  A    between atoms: C_24  and  O_25
REMARK                            x       y       z     vdW  Elec       q    Type
REMARK                         _______ _______ _______ _____ _____    ______ ____
ROOT
ATOM      1  C   UNL     1      -3.288  -1.421  -0.226  0.00  0.00    +0.173 C 
ATOM      2  C   UNL     1      -3.651  -2.270   0.847  0.00  0.00    +0.152 C 
ATOM      3  C   UNL     1      -4.871  -2.908   0.782  0.00  0.00    +0.105 C 
ATOM      4  C   UNL     1      -5.677  -2.641  -0.318  0.00  0.00    +0.019 C 
ATOM      5  C   UNL     1      -6.941  -3.225  -0.524  0.00  0.00    +0.149 C 
ATOM      6  C   UNL     1      -7.709  -2.900  -1.638  0.00  0.00    +0.057 C 
ATOM      7  C   UNL     1      -7.218  -1.984  -2.562  0.00  0.00    +0.105 C 
ATOM      8  C   UNL     1      -5.971  -1.399  -2.391  0.00  0.00    +0.138 C 
ATOM      9  C   UNL     1      -5.199  -1.729  -1.275  0.00  0.00    +0.120 C 
ATOM     10  O   UNL     1      -4.078  -1.161  -1.181  0.00  0.00    -0.456 OA
ENDROOT
BRANCH   1  16
ATOM     11  C   UNL     1      -0.763  -1.269   0.049  0.00  0.00    +0.015 A 
ATOM     12  C   UNL     1       0.434  -0.542  -0.025  0.00  0.00    +0.050 A 
ATOM     13  C   UNL     1       0.404   0.765  -0.483  0.00  0.00    +0.158 A 
ATOM     14  C   UNL     1      -0.799   1.337  -0.877  0.00  0.00    +0.159 A 
ATOM     15  C   UNL     1      -1.990   0.625  -0.805  0.00  0.00    +0.060 A 
ATOM     16  C   UNL     1      -2.002  -0.694  -0.318  0.00  0.00    +0.024 A 
BRANCH  13  17
ATOM     17  O   UNL     1       1.529   1.533  -0.571  0.00  0.00    -0.503 OA
ATOM     18  H   UNL     1       2.292   1.026  -0.241  0.00  0.00    +0.292 HD
ENDBRANCH  13  17
BRANCH  14  19
ATOM     19  O   UNL     1      -0.832   2.620  -1.337  0.00  0.00    -0.503 OA
ATOM     20  H   UNL     1       0.097   2.931  -1.301  0.00  0.00    +0.292 HD
ENDBRANCH  14  19
ENDBRANCH   1  16
BRANCH   5  21
ATOM     21  O   UNL     1      -7.408  -4.121   0.396  0.00  0.00    -0.376 OA
ATOM     22  H   UNL     1      -8.283  -4.459   0.127  0.00  0.00    +0.211 HD
ENDBRANCH   5  21
BRANCH   7  23
ATOM     23  O   UNL     1      -8.011  -1.692  -3.629  0.00  0.00    -0.510 OA
ATOM     24  H   UNL     1      -7.605  -1.030  -4.215  0.00  0.00    +0.292 HD
ENDBRANCH   7  23
BRANCH   2  25
ATOM     25  O   UNL     1      -2.760  -2.419   1.878  0.00  0.00    -0.461 OA
BRANCH  25  26
ATOM     26  C   UNL     1      -3.249  -2.872   3.151  0.00  0.00    +0.339 C 
ATOM     27  C   UNL     1      -2.259  -2.426   4.249  0.00  0.00    +0.214 C 
ATOM     28  C   UNL     1      -0.963  -3.245   4.155  0.00  0.00    +0.180 C 
ATOM     29  C   UNL     1      -1.269  -4.747   4.184  0.00  0.00    +0.177 C 
ATOM     30  C   UNL     1      -2.241  -5.063   3.039  0.00  0.00    +0.179 C 
ATOM     31  O   UNL     1      -3.455  -4.289   3.157  0.00  0.00    -0.331 OA
BRANCH  27  32
ATOM     32  O   UNL     1      -2.842  -2.580   5.553  0.00  0.00    -0.383 OA
ATOM     33  H   UNL     1      -2.881  -3.546   5.740  0.00  0.00    +0.210 HD
ENDBRANCH  27  32
BRANCH  28  34
ATOM     34  O   UNL     1      -0.084  -2.906   5.230  0.00  0.00    -0.386 OA
ATOM     35  H   UNL     1      -0.637  -2.873   6.037  0.00  0.00    +0.210 HD
ENDBRANCH  28  34
BRANCH  29  36
ATOM     36  O   UNL     1      -1.884  -5.068   5.445  0.00  0.00    -0.386 OA
ATOM     37  H   UNL     1      -1.369  -5.795   5.846  0.00  0.00    +0.210 HD
ENDBRANCH  29  36
BRANCH  30  38
ATOM     38  C   UNL     1      -2.642  -6.539   3.024  0.00  0.00    +0.190 C 
BRANCH  38  39
ATOM     39  O   UNL     1      -3.480  -6.779   1.892  0.00  0.00    -0.392 OA
ATOM     40  H   UNL     1      -4.323  -6.331   2.093  0.00  0.00    +0.210 HD
ENDBRANCH  38  39
ENDBRANCH  30  38
ENDBRANCH  25  26
ENDBRANCH   2  25
TORSDOF 12
