REMARK  Name = opt23.xyz
REMARK  17 active torsions:
REMARK  status: ('A' for Active; 'I' for Inactive)
REMARK    1  A    between atoms: C_1  and  O_2
REMARK    2  A    between atoms: O_2  and  C_3
REMARK    3  A    between atoms: C_4  and  O_38
REMARK    4  A    between atoms: C_7  and  C_9
REMARK    5  A    between atoms: C_10  and  C_11
REMARK    6  A    between atoms: C_11  and  O_13
REMARK    7  A    between atoms: O_13  and  C_14
REMARK    8  A    between atoms: C_15  and  O_37
REMARK    9  A    between atoms: C_17  and  C_33
REMARK   10  A    between atoms: C_17  and  O_36
REMARK   11  A    between atoms: C_19  and  O_20
REMARK   12  A    between atoms: O_20  and  C_21
REMARK   13  A    between atoms: C_21  and  C_23
REMARK   14  A    between atoms: C_24  and  C_25
REMARK   15  A    between atoms: C_27  and  O_32
REMARK   16  A    between atoms: C_28  and  O_31
REMARK   17  A    between atoms: C_33  and  O_35
REMARK                            x       y       z     vdW  Elec       q    Type
REMARK                         _______ _______ _______ _____ _____    ______ ____
ROOT
ATOM      1  C   UNL     1      11.017   4.524  -0.108  0.00  0.00    +0.246 C 
ATOM      2  C   UNL     1      11.612   3.782   1.107  0.00  0.00    +0.223 C 
ATOM      3  C   UNL     1      11.261   2.288   1.072  0.00  0.00    +0.095 C 
ATOM      4  C   UNL     1      11.746   1.638  -0.224  0.00  0.00    +0.168 C 
ATOM      5  C   UNL     1      11.211   2.371  -1.462  0.00  0.00    +0.081 C 
ATOM      6  C   UNL     1      11.517   3.875  -1.417  0.00  0.00    +0.162 C 
ENDROOT
BRANCH   6   7
ATOM      7  O   UNL     1      12.920   4.101  -1.576  0.00  0.00    -0.388 OA
ATOM      8  H   UNL     1      13.408   3.319  -1.248  0.00  0.00    +0.210 HD
ENDBRANCH   6   7
BRANCH   4   9
ATOM      9  C   UNL     1      11.314   0.165  -0.294  0.00  0.00    +0.337 C 
ATOM     10  O   UNL     1      10.220  -0.264   0.034  0.00  0.00    -0.248 OA
BRANCH   9  11
ATOM     11  O   UNL     1      12.304  -0.622  -0.787  0.00  0.00    -0.479 OA
ATOM     12  H   UNL     1      13.086  -0.066  -1.007  0.00  0.00    +0.295 HD
ENDBRANCH   9  11
ENDBRANCH   4   9
BRANCH   4  13
ATOM     13  O   UNL     1      13.191   1.683  -0.272  0.00  0.00    -0.377 OA
ATOM     14  H   UNL     1      13.523   1.460   0.624  0.00  0.00    +0.211 HD
ENDBRANCH   4  13
BRANCH   2  15
ATOM     15  O   UNL     1      11.106   4.371   2.324  0.00  0.00    -0.454 OA
BRANCH  15  16
ATOM     16  C   UNL     1      11.888   4.181   3.418  0.00  0.00    +0.332 C 
ATOM     17  O   UNL     1      12.940   3.565   3.453  0.00  0.00    -0.246 OA
BRANCH  16  18
ATOM     18  C   UNL     1      11.230   4.817   4.576  0.00  0.00    +0.092 C 
ATOM     19  C   UNL     1      11.806   4.750   5.785  0.00  0.00    +0.015 C 
BRANCH  19  20
ATOM     20  C   UNL     1      11.233   5.332   7.007  0.00  0.00    -0.021 A 
ATOM     21  C   UNL     1      12.105   5.861   7.974  0.00  0.00    +0.012 A 
ATOM     22  C   UNL     1      11.612   6.387   9.171  0.00  0.00    +0.050 A 
ATOM     23  C   UNL     1      10.247   6.371   9.404  0.00  0.00    +0.158 A 
ATOM     24  C   UNL     1       9.371   5.837   8.463  0.00  0.00    +0.159 A 
ATOM     25  C   UNL     1       9.853   5.312   7.267  0.00  0.00    +0.057 A 
BRANCH  24  26
ATOM     26  O   UNL     1       8.037   5.841   8.765  0.00  0.00    -0.503 OA
ATOM     27  H   UNL     1       7.555   5.426   8.030  0.00  0.00    +0.292 HD
ENDBRANCH  24  26
BRANCH  23  28
ATOM     28  O   UNL     1       9.764   6.878  10.575  0.00  0.00    -0.503 OA
ATOM     29  H   UNL     1       8.796   6.752  10.517  0.00  0.00    +0.292 HD
ENDBRANCH  23  28
ENDBRANCH  19  20
ENDBRANCH  16  18
ENDBRANCH  15  16
ENDBRANCH   2  15
BRANCH   1  30
ATOM     30  O   UNL     1       9.571   4.459  -0.041  0.00  0.00    -0.452 OA
BRANCH  30  31
ATOM     31  C   UNL     1       8.928   5.446  -0.719  0.00  0.00    +0.332 C 
ATOM     32  O   UNL     1       9.457   6.317  -1.386  0.00  0.00    -0.246 OA
BRANCH  31  34
ATOM     33  C   UNL     1       6.650   6.192  -1.100  0.00  0.00    +0.015 C 
ATOM     34  C   UNL     1       7.470   5.299  -0.521  0.00  0.00    +0.092 C 
BRANCH  33  37
ATOM     35  C   UNL     1       2.995   5.231  -0.565  0.00  0.00    +0.162 A 
ATOM     36  C   UNL     1       4.391   5.122  -0.673  0.00  0.00    +0.057 A 
ATOM     37  C   UNL     1       5.184   6.240  -0.975  0.00  0.00    -0.021 A 
ATOM     38  C   UNL     1       4.546   7.468  -1.207  0.00  0.00    +0.012 A 
ATOM     39  C   UNL     1       3.161   7.587  -1.094  0.00  0.00    +0.050 A 
ATOM     40  C   UNL     1       2.397   6.479  -0.743  0.00  0.00    +0.158 A 
BRANCH  40  41
ATOM     41  O   UNL     1       1.070   6.711  -0.522  0.00  0.00    -0.503 OA
ATOM     42  H   UNL     1       0.824   6.159   0.240  0.00  0.00    +0.292 HD
ENDBRANCH  40  41
BRANCH  35  44
ATOM     43  C   UNL     1       1.076   3.852  -0.822  0.00  0.00    +0.277 C 
ATOM     44  O   UNL     1       2.350   4.072  -0.221  0.00  0.00    -0.491 OA
ENDBRANCH  35  44
ENDBRANCH  33  37
ENDBRANCH  31  34
ENDBRANCH  30  31
ENDBRANCH   1  30
TORSDOF 16
