REMARK  Name = opt20.xyz
REMARK  16 active torsions:
REMARK  status: ('A' for Active; 'I' for Inactive)
REMARK    1  A    between atoms: C_2  and  O_37
REMARK    2  A    between atoms: C_3  and  O_24
REMARK    3  A    between atoms: C_4  and  O_11
REMARK    4  A    between atoms: C_6  and  C_7
REMARK    5  A    between atoms: C_6  and  O_10
REMARK    6  A    between atoms: C_7  and  O_9
REMARK    7  A    between atoms: O_11  and  C_12
REMARK    8  A    between atoms: C_12  and  C_14
REMARK    9  A    between atoms: C_15  and  C_16
REMARK   10  A    between atoms: C_18  and  O_23
REMARK   11  A    between atoms: C_19  and  O_22
REMARK   12  A    between atoms: O_24  and  C_25
REMARK   13  A    between atoms: C_25  and  C_27
REMARK   14  A    between atoms: C_28  and  C_29
REMARK   15  A    between atoms: C_31  and  O_36
REMARK   16  A    between atoms: C_32  and  O_35
REMARK                            x       y       z     vdW  Elec       q    Type
REMARK                         _______ _______ _______ _____ _____    ______ ____
ROOT
ATOM      1  C   UNL     1       0.721   1.223  -0.119  0.00  0.00    +0.081 C 
ATOM      2  C   UNL     1      -0.759   1.129   0.287  0.00  0.00    +0.168 C 
ATOM      3  C   UNL     1      -1.401  -0.215  -0.076  0.00  0.00    +0.095 C 
ATOM      4  C   UNL     1      -0.575  -1.434   0.338  0.00  0.00    +0.223 C 
ATOM      5  C   UNL     1       0.866  -1.321  -0.191  0.00  0.00    +0.246 C 
ATOM      6  C   UNL     1       1.558  -0.012   0.239  0.00  0.00    +0.162 C 
ENDROOT
BRANCH   6   7
ATOM      7  O   UNL     1       1.918  -0.009   1.618  0.00  0.00    -0.388 OA
ATOM      8  H   UNL     1       1.119   0.068   2.181  0.00  0.00    +0.210 HD
ENDBRANCH   6   7
BRANCH   2   9
ATOM      9  O   UNL     1      -1.526   2.148  -0.414  0.00  0.00    -0.377 OA
ATOM     10  H   UNL     1      -1.023   2.437  -1.198  0.00  0.00    +0.211 HD
ENDBRANCH   2   9
BRANCH   2  11
ATOM     11  C   UNL     1      -0.950   1.472   1.784  0.00  0.00    +0.337 C 
ATOM     12  O   UNL     1      -0.287   1.022   2.706  0.00  0.00    -0.248 OA
BRANCH  11  13
ATOM     13  O   UNL     1      -1.965   2.352   1.972  0.00  0.00    -0.479 OA
ATOM     14  H   UNL     1      -2.299   2.606   1.077  0.00  0.00    +0.295 HD
ENDBRANCH  11  13
ENDBRANCH   2  11
BRANCH   5  15
ATOM     15  O   UNL     1       1.604  -2.466   0.270  0.00  0.00    -0.452 OA
BRANCH  15  16
ATOM     16  C   UNL     1       2.682  -2.827  -0.461  0.00  0.00    +0.332 C 
ATOM     17  O   UNL     1       3.096  -2.274  -1.465  0.00  0.00    -0.246 OA
BRANCH  16  18
ATOM     18  C   UNL     1       3.240  -4.046   0.155  0.00  0.00    +0.092 C 
ATOM     19  C   UNL     1       4.296  -4.667  -0.392  0.00  0.00    +0.015 C 
BRANCH  19  20
ATOM     20  C   UNL     1       4.880  -5.897   0.161  0.00  0.00    -0.021 A 
ATOM     21  C   UNL     1       4.082  -6.919   0.706  0.00  0.00    +0.012 A 
ATOM     22  C   UNL     1       4.659  -8.091   1.201  0.00  0.00    +0.050 A 
ATOM     23  C   UNL     1       6.034  -8.244   1.140  0.00  0.00    +0.158 A 
ATOM     24  C   UNL     1       6.837  -7.250   0.589  0.00  0.00    +0.159 A 
ATOM     25  C   UNL     1       6.270  -6.079   0.093  0.00  0.00    +0.057 A 
BRANCH  24  26
ATOM     26  O   UNL     1       8.187  -7.471   0.557  0.00  0.00    -0.503 OA
ATOM     27  H   UNL     1       8.612  -6.693   0.157  0.00  0.00    +0.292 HD
ENDBRANCH  24  26
BRANCH  23  28
ATOM     28  O   UNL     1       6.599  -9.389   1.623  0.00  0.00    -0.503 OA
ATOM     29  H   UNL     1       7.558  -9.271   1.474  0.00  0.00    +0.292 HD
ENDBRANCH  23  28
ENDBRANCH  19  20
ENDBRANCH  16  18
ENDBRANCH  15  16
ENDBRANCH   5  15
BRANCH   4  30
ATOM     30  O   UNL     1      -0.601  -1.505   1.773  0.00  0.00    -0.454 OA
BRANCH  30  31
ATOM     31  C   UNL     1      -0.601  -2.739   2.333  0.00  0.00    +0.332 C 
ATOM     32  O   UNL     1      -0.602  -3.809   1.750  0.00  0.00    -0.246 OA
BRANCH  31  33
ATOM     33  C   UNL     1      -0.639  -2.557   3.798  0.00  0.00    +0.092 C 
ATOM     34  C   UNL     1      -0.692  -3.625   4.607  0.00  0.00    +0.015 C 
BRANCH  34  35
ATOM     35  C   UNL     1      -0.782  -3.550   6.073  0.00  0.00    -0.021 A 
ATOM     36  C   UNL     1      -0.189  -2.514   6.814  0.00  0.00    +0.057 A 
ATOM     37  C   UNL     1      -0.302  -2.509   8.202  0.00  0.00    +0.159 A 
ATOM     38  C   UNL     1      -0.986  -3.527   8.859  0.00  0.00    +0.158 A 
ATOM     39  C   UNL     1      -1.561  -4.567   8.147  0.00  0.00    +0.050 A 
ATOM     40  C   UNL     1      -1.454  -4.579   6.754  0.00  0.00    +0.012 A 
BRANCH  38  41
ATOM     41  O   UNL     1      -1.092  -3.511  10.220  0.00  0.00    -0.503 OA
ATOM     42  H   UNL     1      -0.616  -2.701  10.491  0.00  0.00    +0.292 HD
ENDBRANCH  38  41
BRANCH  37  43
ATOM     43  O   UNL     1       0.247  -1.517   8.968  0.00  0.00    -0.503 OA
ATOM     44  H   UNL     1       0.678  -0.878   8.374  0.00  0.00    +0.292 HD
ENDBRANCH  37  43
ENDBRANCH  34  35
ENDBRANCH  31  33
ENDBRANCH  30  31
ENDBRANCH   4  30
TORSDOF 16
