REMARK  Name = opt25.xyz
REMARK  12 active torsions:
REMARK  status: ('A' for Active; 'I' for Inactive)
REMARK    1  A    between atoms: C_3  and  O_33
REMARK    2  A    between atoms: C_4  and  O_32
REMARK    3  A    between atoms: C_6  and  C_7
REMARK    4  A    between atoms: C_8  and  O_20
REMARK    5  A    between atoms: C_12  and  O_19
REMARK    6  A    between atoms: C_14  and  O_18
REMARK    7  A    between atoms: O_20  and  C_21
REMARK    8  A    between atoms: C_22  and  O_31
REMARK    9  A    between atoms: C_23  and  O_30
REMARK   10  A    between atoms: C_24  and  O_29
REMARK   11  A    between atoms: C_25  and  C_27
REMARK   12  A    between atoms: C_27  and  O_28
REMARK                            x       y       z     vdW  Elec       q    Type
REMARK                         _______ _______ _______ _____ _____    ______ ____
ROOT
ATOM      1  C   UNL     1      -3.584  -1.232  -0.564  0.00  0.00    +0.181 A 
ATOM      2  O   UNL     1      -3.650  -2.198   0.444  0.00  0.00    -0.451 OA
ATOM      3  C   UNL     1      -4.776  -2.955   0.594  0.00  0.00    +0.147 A 
ATOM      4  C   UNL     1      -4.913  -3.687   1.772  0.00  0.00    +0.092 A 
ATOM      5  C   UNL     1      -6.049  -4.469   1.964  0.00  0.00    +0.124 A 
ATOM      6  C   UNL     1      -7.037  -4.551   0.987  0.00  0.00    +0.091 A 
ATOM      7  C   UNL     1      -6.880  -3.833  -0.194  0.00  0.00    +0.135 A 
ATOM      8  C   UNL     1      -5.754  -3.024  -0.382  0.00  0.00    +0.109 A 
ATOM      9  C   UNL     1      -5.570  -2.209  -1.579  0.00  0.00    +0.238 A 
ATOM     10  O   UNL     1      -6.296  -2.401  -2.555  0.00  0.00    -0.283 OA
ATOM     11  C   UNL     1      -4.525  -1.131  -1.535  0.00  0.00    +0.214 A 
ENDROOT
BRANCH   1  13
ATOM     12  C   UNL     1      -2.109   0.810  -1.110  0.00  0.00    +0.015 A 
ATOM     13  C   UNL     1      -2.346  -0.393  -0.418  0.00  0.00    +0.025 A 
ATOM     14  C   UNL     1      -1.332  -0.823   0.468  0.00  0.00    +0.060 A 
ATOM     15  C   UNL     1      -0.159  -0.094   0.633  0.00  0.00    +0.159 A 
ATOM     16  C   UNL     1       0.055   1.076  -0.077  0.00  0.00    +0.158 A 
ATOM     17  C   UNL     1      -0.916   1.537  -0.952  0.00  0.00    +0.050 A 
BRANCH  15  18
ATOM     18  O   UNL     1       0.787  -0.548   1.507  0.00  0.00    -0.503 OA
ATOM     19  H   UNL     1       1.503   0.117   1.464  0.00  0.00    +0.292 HD
ENDBRANCH  15  18
BRANCH  16  20
ATOM     20  O   UNL     1       1.233   1.737   0.122  0.00  0.00    -0.503 OA
ATOM     21  H   UNL     1       1.241   2.525  -0.449  0.00  0.00    +0.292 HD
ENDBRANCH  16  20
ENDBRANCH   1  13
BRANCH   5  22
ATOM     22  O   UNL     1      -6.158  -5.148   3.141  0.00  0.00    -0.507 OA
ATOM     23  H   UNL     1      -7.005  -5.625   3.153  0.00  0.00    +0.292 HD
ENDBRANCH   5  22
BRANCH   7  24
ATOM     24  O   UNL     1      -7.873  -3.956  -1.127  0.00  0.00    -0.506 OA
ATOM     25  H   UNL     1      -7.586  -3.491  -1.943  0.00  0.00    +0.292 HD
ENDBRANCH   7  24
BRANCH  11  26
ATOM     26  O   UNL     1      -4.526  -0.136  -2.508  0.00  0.00    -0.453 OA
BRANCH  26  27
ATOM     27  C   UNL     1      -5.836   0.342  -2.874  0.00  0.00    +0.340 C 
ATOM     28  O   UNL     1      -6.002   1.716  -2.499  0.00  0.00    -0.331 OA
ATOM     29  C   UNL     1      -5.409   2.681  -3.377  0.00  0.00    +0.179 C 
ATOM     30  C   UNL     1      -5.904   2.520  -4.817  0.00  0.00    +0.177 C 
ATOM     31  C   UNL     1      -5.541   1.110  -5.288  0.00  0.00    +0.180 C 
ATOM     32  C   UNL     1      -6.094   0.019  -4.366  0.00  0.00    +0.214 C 
BRANCH  30  33
ATOM     33  O   UNL     1      -7.319   2.718  -4.910  0.00  0.00    -0.386 OA
ATOM     34  H   UNL     1      -7.490   3.659  -5.082  0.00  0.00    +0.210 HD
ENDBRANCH  30  33
BRANCH  31  35
ATOM     35  O   UNL     1      -6.031   0.910  -6.620  0.00  0.00    -0.386 OA
ATOM     36  H   UNL     1      -7.002   0.828  -6.494  0.00  0.00    +0.210 HD
ENDBRANCH  31  35
BRANCH  32  37
ATOM     37  O   UNL     1      -7.497  -0.170  -4.630  0.00  0.00    -0.383 OA
ATOM     38  H   UNL     1      -7.752  -0.988  -4.163  0.00  0.00    +0.210 HD
ENDBRANCH  32  37
BRANCH  29  39
ATOM     39  C   UNL     1      -5.770   4.058  -2.810  0.00  0.00    +0.190 C 
BRANCH  39  40
ATOM     40  O   UNL     1      -5.178   4.211  -1.520  0.00  0.00    -0.392 OA
ATOM     41  H   UNL     1      -5.496   3.448  -0.998  0.00  0.00    +0.210 HD
ENDBRANCH  39  40
ENDBRANCH  29  39
ENDBRANCH  26  27
ENDBRANCH  11  26
TORSDOF 12
