REMARK  Name = opt2.xyz
REMARK  14 active torsions:
REMARK  status: ('A' for Active; 'I' for Inactive)
REMARK    1  A    between atoms: C_1  and  O_2
REMARK    2  A    between atoms: O_2  and  C_3
REMARK    3  A    between atoms: C_4  and  O_43
REMARK    4  A    between atoms: C_6  and  C_10
REMARK    5  A    between atoms: C_8  and  O_9
REMARK    6  A    between atoms: C_11  and  O_42
REMARK    7  A    between atoms: C_16  and  C_22
REMARK    8  A    between atoms: C_17  and  O_21
REMARK    9  A    between atoms: C_19  and  O_20
REMARK   10  A    between atoms: C_23  and  O_41
REMARK   11  A    between atoms: C_24  and  C_34
REMARK   12  A    between atoms: C_28  and  O_33
REMARK   13  A    between atoms: C_30  and  O_32
REMARK   14  A    between atoms: C_37  and  O_40
REMARK                            x       y       z     vdW  Elec       q    Type
REMARK                         _______ _______ _______ _____ _____    ______ ____
ROOT
ATOM      1  C   UNL     1       6.453   1.437  -3.798  0.00  0.00    +0.232 C 
ATOM      2  C   UNL     1       7.982   1.581  -3.736  0.00  0.00    +0.164 C 
ATOM      3  C   UNL     1       8.436   2.852  -3.049  0.00  0.00    +0.078 C 
ATOM      4  C   UNL     1       7.615   4.025  -3.501  0.00  0.00    +0.039 A 
ATOM      5  C   UNL     1       8.149   5.317  -3.463  0.00  0.00    +0.127 A 
ATOM      6  C   UNL     1       7.386   6.417  -3.831  0.00  0.00    +0.091 A 
ATOM      7  C   UNL     1       6.043   6.234  -4.136  0.00  0.00    +0.128 A 
ATOM      8  C   UNL     1       5.428   4.970  -4.060  0.00  0.00    +0.046 A 
ATOM      9  C   UNL     1       6.271   3.856  -3.869  0.00  0.00    +0.136 A 
ATOM     10  O   UNL     1       5.714   2.632  -4.098  0.00  0.00    -0.481 OA
ENDROOT
BRANCH   8  11
ATOM     11  C   UNL     1       3.903   4.903  -3.947  0.00  0.00    +0.096 C 
ATOM     12  C   UNL     1       3.338   3.954  -2.852  0.00  0.00    +0.172 C 
ATOM     13  C   UNL     1       1.908   4.423  -2.481  0.00  0.00    +0.233 C 
ATOM     14  O   UNL     1       1.196   5.097  -3.550  0.00  0.00    -0.481 OA
ATOM     15  C   UNL     1       1.617   4.742  -4.814  0.00  0.00    +0.132 A 
ATOM     16  C   UNL     1       0.639   4.445  -5.756  0.00  0.00    +0.091 A 
ATOM     17  C   UNL     1       1.040   4.056  -7.026  0.00  0.00    +0.124 A 
ATOM     18  C   UNL     1       2.389   4.024  -7.377  0.00  0.00    +0.091 A 
ATOM     19  C   UNL     1       3.362   4.352  -6.431  0.00  0.00    +0.128 A 
ATOM     20  C   UNL     1       2.994   4.695  -5.133  0.00  0.00    +0.046 A 
BRANCH  13  21
ATOM     21  C   UNL     1       1.974   5.284  -1.224  0.00  0.00    -0.005 A 
ATOM     22  C   UNL     1       1.930   4.652   0.033  0.00  0.00    +0.011 A 
ATOM     23  C   UNL     1       2.144   5.378   1.205  0.00  0.00    +0.046 A 
ATOM     24  C   UNL     1       2.415   6.738   1.129  0.00  0.00    +0.117 A 
ATOM     25  C   UNL     1       2.443   7.390  -0.099  0.00  0.00    +0.046 A 
ATOM     26  C   UNL     1       2.215   6.665  -1.273  0.00  0.00    +0.011 A 
BRANCH  24  27
ATOM     27  O   UNL     1       2.666   7.400   2.294  0.00  0.00    -0.507 OA
ATOM     28  H   UNL     1       2.940   8.307   2.079  0.00  0.00    +0.292 HD
ENDBRANCH  24  27
ENDBRANCH  13  21
BRANCH  19  29
ATOM     29  O   UNL     1       4.679   4.316  -6.779  0.00  0.00    -0.506 OA
ATOM     30  H   UNL     1       4.758   3.988  -7.690  0.00  0.00    +0.292 HD
ENDBRANCH  19  29
BRANCH  17  31
ATOM     31  O   UNL     1       0.132   3.676  -7.971  0.00  0.00    -0.507 OA
ATOM     32  H   UNL     1      -0.745   3.628  -7.553  0.00  0.00    +0.292 HD
ENDBRANCH  17  31
BRANCH  12  33
ATOM     33  O   UNL     1       3.202   2.594  -3.318  0.00  0.00    -0.387 OA
ATOM     34  H   UNL     1       4.004   2.415  -3.843  0.00  0.00    +0.210 HD
ENDBRANCH  12  33
ENDBRANCH   8  11
BRANCH   1  38
ATOM     35  C   UNL     1       3.861  -0.134  -0.702  0.00  0.00    +0.203 A 
ATOM     36  C   UNL     1       4.819   0.844  -0.401  0.00  0.00    +0.163 A 
ATOM     37  C   UNL     1       5.726   1.313  -1.348  0.00  0.00    +0.056 A 
ATOM     38  C   UNL     1       5.705   0.789  -2.645  0.00  0.00    +0.002 A 
ATOM     39  C   UNL     1       4.788  -0.244  -2.935  0.00  0.00    +0.056 A 
ATOM     40  C   UNL     1       3.874  -0.697  -1.977  0.00  0.00    +0.163 A 
BRANCH  35  42
ATOM     41  C   UNL     1       1.698  -0.853  -0.058  0.00  0.00    +0.277 C 
ATOM     42  O   UNL     1       3.002  -0.425   0.329  0.00  0.00    -0.489 OA
ENDBRANCH  35  42
BRANCH  36  43
ATOM     43  O   UNL     1       4.843   1.417   0.844  0.00  0.00    -0.503 OA
ATOM     44  H   UNL     1       4.128   0.968   1.337  0.00  0.00    +0.292 HD
ENDBRANCH  36  43
BRANCH  40  45
ATOM     45  O   UNL     1       2.993  -1.683  -2.326  0.00  0.00    -0.503 OA
ATOM     46  H   UNL     1       3.074  -1.857  -3.278  0.00  0.00    +0.292 HD
ENDBRANCH  40  45
ENDBRANCH   1  38
BRANCH   5  47
ATOM     47  O   UNL     1       9.447   5.488  -3.072  0.00  0.00    -0.506 OA
ATOM     48  H   UNL     1       9.644   6.439  -3.049  0.00  0.00    +0.292 HD
ENDBRANCH   5  47
BRANCH   7  49
ATOM     49  O   UNL     1       5.348   7.360  -4.488  0.00  0.00    -0.506 OA
ATOM     50  H   UNL     1       4.677   7.088  -5.140  0.00  0.00    +0.292 HD
ENDBRANCH   7  49
BRANCH   2  51
ATOM     51  O   UNL     1       8.621   0.430  -3.181  0.00  0.00    -0.387 OA
ATOM     52  H   UNL     1       8.352   0.358  -2.246  0.00  0.00    +0.210 HD
ENDBRANCH   2  51
TORSDOF 13
