REMARK  Name = opt29.xyz
REMARK  8 active torsions:
REMARK  status: ('A' for Active; 'I' for Inactive)
REMARK    1  A    between atoms: C_1  and  O_2
REMARK    2  A    between atoms: O_2  and  C_3
REMARK    3  A    between atoms: C_5  and  C_12
REMARK    4  A    between atoms: C_7  and  O_10
REMARK    5  A    between atoms: C_8  and  O_9
REMARK    6  A    between atoms: O_10  and  C_11
REMARK    7  A    between atoms: C_13  and  C_14
REMARK    8  A    between atoms: C_14  and  O_16
REMARK                            x       y       z     vdW  Elec       q    Type
REMARK                         _______ _______ _______ _____ _____    ______ ____
ROOT
ATOM      1  C   UNL     1       3.025   1.061   0.054  0.00  0.00    +0.166 A 
ATOM      2  C   UNL     1       4.424   1.059   0.056  0.00  0.00    +0.201 A 
ATOM      3  C   UNL     1       5.162   2.250   0.046  0.00  0.00    +0.166 A 
ATOM      4  C   UNL     1       4.483   3.468   0.045  0.00  0.00    +0.057 A 
ATOM      5  C   UNL     1       3.079   3.498   0.059  0.00  0.00    -0.018 A 
ATOM      6  C   UNL     1       2.360   2.290   0.046  0.00  0.00    +0.057 A 
ENDROOT
BRANCH   1   8
ATOM      7  C   UNL     1       0.997  -0.199   0.068  0.00  0.00    +0.277 C 
ATOM      8  O   UNL     1       2.416  -0.166   0.053  0.00  0.00    -0.491 OA
ENDBRANCH   1   8
BRANCH   2   9
ATOM      9  O   UNL     1       5.101  -0.137   0.061  0.00  0.00    -0.501 OA
ATOM     10  H   UNL     1       6.047   0.103   0.049  0.00  0.00    +0.292 HD
ENDBRANCH   2   9
BRANCH   5  11
ATOM     11  C   UNL     1       2.408   4.807   0.025  0.00  0.00    +0.015 C 
ATOM     12  C   UNL     1       1.262   5.086   0.666  0.00  0.00    +0.092 C 
BRANCH  12  13
ATOM     13  C   UNL     1       0.698   6.448   0.569  0.00  0.00    +0.330 C 
ATOM     14  O   UNL     1       1.228   7.377  -0.014  0.00  0.00    -0.246 OA
BRANCH  13  15
ATOM     15  O   UNL     1      -0.488   6.552   1.201  0.00  0.00    -0.478 OA
ATOM     16  H   UNL     1      -0.816   5.739   1.624  0.00  0.00    +0.295 HD
ENDBRANCH  13  15
ENDBRANCH  12  13
ENDBRANCH   5  11
BRANCH   3  17
ATOM     17  O   UNL     1       6.525   2.085   0.039  0.00  0.00    -0.491 OA
ATOM     18  C   UNL     1       7.315   3.269  -0.004  0.00  0.00    +0.277 C 
ENDBRANCH   3  17
TORSDOF 6
