REMARK  Name = opt36.xyz
REMARK  13 active torsions:
REMARK  status: ('A' for Active; 'I' for Inactive)
REMARK    1  A    between atoms: C_1  and  C_2
REMARK    2  A    between atoms: C_2  and  C_3
REMARK    3  A    between atoms: C_2  and  C_4
REMARK    4  A    between atoms: C_4  and  C_5
REMARK    5  A    between atoms: C_5  and  C_6
REMARK    6  A    between atoms: C_6  and  C_7
REMARK    7  A    between atoms: C_7  and  C_8
REMARK    8  A    between atoms: C_8  and  C_9
REMARK    9  A    between atoms: N_11  and  C_12
REMARK   10  A    between atoms: C_12  and  C_13
REMARK   11  A    between atoms: C_15  and  O_20
REMARK   12  A    between atoms: C_16  and  O_19
REMARK   13  A    between atoms: O_20  and  C_21
REMARK                            x       y       z     vdW  Elec       q    Type
REMARK                         _______ _______ _______ _____ _____    ______ ____
ROOT
ATOM      1  C   UNL     1       8.799   4.281   0.483  0.00  0.00    +0.213 C 
ATOM      2  N   UNL     1       9.412   5.305   1.168  0.00  0.00    -0.311 N 
ATOM      3  H   UNL     1       8.850   6.009   1.627  0.00  0.00    +0.149 HD
ATOM      4  O   UNL     1       9.410   3.438  -0.160  0.00  0.00    -0.276 OA
ENDROOT
BRANCH   1   5
ATOM      5  C   UNL     1       7.283   4.319   0.584  0.00  0.00    +0.096 C 
BRANCH   5   6
ATOM      6  C   UNL     1       6.634   2.961   0.310  0.00  0.00    +0.009 C 
BRANCH   6   7
ATOM      7  C   UNL     1       6.947   1.941   1.410  0.00  0.00    +0.000 C 
BRANCH   7   8
ATOM      8  C   UNL     1       6.256   0.601   1.151  0.00  0.00    +0.000 C 
BRANCH   8   9
ATOM      9  C   UNL     1       6.601  -0.413   2.247  0.00  0.00    +0.003 C 
BRANCH   9  11
ATOM     10  C   UNL     1       6.513  -2.782   3.076  0.00  0.00    +0.007 C 
ATOM     11  C   UNL     1       6.011  -1.814   2.001  0.00  0.00    -0.017 C 
ATOM     12  C   UNL     1       4.482  -1.808   1.987  0.00  0.00    +0.007 C 
ENDBRANCH   9  11
ENDBRANCH   8   9
ENDBRANCH   7   8
ENDBRANCH   6   7
ENDBRANCH   5   6
ENDBRANCH   1   5
BRANCH   2  13
ATOM     13  C   UNL     1      10.850   5.429   1.241  0.00  0.00    +0.139 C 
BRANCH  13  14
ATOM     14  C   UNL     1      11.299   6.761   0.700  0.00  0.00    -0.027 A 
ATOM     15  C   UNL     1      11.554   7.836   1.560  0.00  0.00    +0.009 A 
ATOM     16  C   UNL     1      11.920   9.079   1.042  0.00  0.00    +0.049 A 
ATOM     17  C   UNL     1      12.014   9.259  -0.336  0.00  0.00    +0.158 A 
ATOM     18  C   UNL     1      11.801   8.193  -1.213  0.00  0.00    +0.162 A 
ATOM     19  C   UNL     1      11.425   6.953  -0.687  0.00  0.00    +0.054 A 
BRANCH  17  20
ATOM     20  O   UNL     1      12.242  10.536  -0.763  0.00  0.00    -0.503 OA
ATOM     21  H   UNL     1      11.732  10.635  -1.585  0.00  0.00    +0.292 HD
ENDBRANCH  17  20
BRANCH  18  22
ATOM     22  O   UNL     1      11.845   8.259  -2.579  0.00  0.00    -0.491 OA
ATOM     23  C   UNL     1      12.913   9.019  -3.139  0.00  0.00    +0.277 C 
ENDBRANCH  18  22
ENDBRANCH  13  14
ENDBRANCH   2  13
TORSDOF 10
