REMARK  Name = opt37.xyz
REMARK  13 active torsions:
REMARK  status: ('A' for Active; 'I' for Inactive)
REMARK    1  A    between atoms: C_1  and  C_2
REMARK    2  A    between atoms: C_2  and  C_3
REMARK    3  A    between atoms: C_2  and  C_4
REMARK    4  A    between atoms: C_5  and  C_6
REMARK    5  A    between atoms: C_6  and  C_7
REMARK    6  A    between atoms: C_7  and  C_8
REMARK    7  A    between atoms: C_8  and  C_9
REMARK    8  A    between atoms: C_9  and  C_10
REMARK    9  A    between atoms: N_12  and  C_13
REMARK   10  A    between atoms: C_13  and  C_14
REMARK   11  A    between atoms: C_16  and  O_21
REMARK   12  A    between atoms: C_17  and  O_20
REMARK   13  A    between atoms: O_21  and  C_22
REMARK                            x       y       z     vdW  Elec       q    Type
REMARK                         _______ _______ _______ _____ _____    ______ ____
ROOT
ATOM      1  C   UNL     1       8.842  -5.352  -2.868  0.00  0.00    +0.213 C 
ATOM      2  N   UNL     1      10.097  -5.766  -2.489  0.00  0.00    -0.311 N 
ATOM      3  H   UNL     1      10.556  -5.318  -1.707  0.00  0.00    +0.149 HD
ATOM      4  O   UNL     1       8.188  -5.896  -3.753  0.00  0.00    -0.276 OA
ENDROOT
BRANCH   1   5
ATOM      5  C   UNL     1       8.369  -4.117  -2.123  0.00  0.00    +0.096 C 
BRANCH   5   6
ATOM      6  C   UNL     1       6.854  -3.953  -2.215  0.00  0.00    +0.009 C 
BRANCH   6   7
ATOM      7  C   UNL     1       6.369  -2.695  -1.491  0.00  0.00    +0.004 C 
BRANCH   7   8
ATOM      8  C   UNL     1       4.841  -2.621  -1.505  0.00  0.00    +0.027 C 
BRANCH   8  10
ATOM      9  C   UNL     1       3.552  -0.471  -1.424  0.00  0.00    -0.028 C 
ATOM     10  C   UNL     1       4.333  -1.383  -0.822  0.00  0.00    -0.031 C 
BRANCH   9  12
ATOM     11  C   UNL     1       3.489   2.019  -1.442  0.00  0.00    +0.011 C 
ATOM     12  C   UNL     1       3.001   0.754  -0.738  0.00  0.00    +0.005 C 
ATOM     13  C   UNL     1       1.473   0.702  -0.723  0.00  0.00    +0.011 C 
ENDBRANCH   9  12
ENDBRANCH   8  10
ENDBRANCH   7   8
ENDBRANCH   6   7
ENDBRANCH   5   6
ENDBRANCH   1   5
BRANCH   2  14
ATOM     14  C   UNL     1      10.733  -6.919  -3.078  0.00  0.00    +0.139 C 
BRANCH  14  15
ATOM     15  C   UNL     1      10.935  -8.012  -2.061  0.00  0.00    -0.027 A 
ATOM     16  C   UNL     1      12.095  -8.053  -1.278  0.00  0.00    +0.009 A 
ATOM     17  C   UNL     1      12.296  -9.098  -0.376  0.00  0.00    +0.049 A 
ATOM     18  C   UNL     1      11.345 -10.110  -0.256  0.00  0.00    +0.158 A 
ATOM     19  C   UNL     1      10.152 -10.062  -0.980  0.00  0.00    +0.162 A 
ATOM     20  C   UNL     1       9.959  -9.008  -1.883  0.00  0.00    +0.054 A 
BRANCH  18  21
ATOM     21  O   UNL     1      11.697 -11.165   0.537  0.00  0.00    -0.503 OA
ATOM     22  H   UNL     1      11.420 -11.961   0.051  0.00  0.00    +0.292 HD
ENDBRANCH  18  21
BRANCH  19  23
ATOM     23  O   UNL     1       9.143 -10.985  -0.962  0.00  0.00    -0.491 OA
ATOM     24  C   UNL     1       8.895 -11.660   0.266  0.00  0.00    +0.277 C 
ENDBRANCH  19  23
ENDBRANCH  14  15
ENDBRANCH   2  14
TORSDOF 10
