REMARK  Name = opt30.xyz
REMARK  22 active torsions:
REMARK  status: ('A' for Active; 'I' for Inactive)
REMARK    1  A    between atoms: C_5  and  C_12
REMARK    2  A    between atoms: C_7  and  O_10
REMARK    3  A    between atoms: C_8  and  O_9
REMARK    4  A    between atoms: O_10  and  C_11
REMARK    5  A    between atoms: C_15  and  C_16
REMARK    6  A    between atoms: C_16  and  C_17
REMARK    7  A    between atoms: C_16  and  C_18
REMARK    8  A    between atoms: C_21  and  C_31
REMARK    9  A    between atoms: C_22  and  O_23
REMARK   10  A    between atoms: C_26  and  O_27
REMARK   11  A    between atoms: C_29  and  O_30
REMARK   12  A    between atoms: C_33  and  O_38
REMARK   13  A    between atoms: C_34  and  O_35
REMARK   14  A    between atoms: C_39  and  O_58
REMARK   15  A    between atoms: C_41  and  O_57
REMARK   16  A    between atoms: C_44  and  O_45
REMARK   17  A    between atoms: O_45  and  C_46
REMARK   18  A    between atoms: C_48  and  C_49
REMARK   19  A    between atoms: C_49  and  O_50
REMARK   20  A    between atoms: C_51  and  O_52
REMARK   21  A    between atoms: C_53  and  O_54
REMARK   22  A    between atoms: C_55  and  O_56
REMARK                            x       y       z     vdW  Elec       q    Type
REMARK                         _______ _______ _______ _____ _____    ______ ____
ROOT
ATOM      1  C   UNL     1       1.303   0.358   0.176  0.00  0.00    +0.000 C 
ENDROOT
TORSDOF 0
REMARK  Name = opt30.xyz
REMARK  22 active torsions:
REMARK  status: ('A' for Active; 'I' for Inactive)
REMARK    1  A    between atoms: C_5  and  C_12
REMARK    2  A    between atoms: C_7  and  O_10
REMARK    3  A    between atoms: C_8  and  O_9
REMARK    4  A    between atoms: O_10  and  C_11
REMARK    5  A    between atoms: C_15  and  C_16
REMARK    6  A    between atoms: C_16  and  C_17
REMARK    7  A    between atoms: C_16  and  C_18
REMARK    8  A    between atoms: C_21  and  C_31
REMARK    9  A    between atoms: C_22  and  O_23
REMARK   10  A    between atoms: C_26  and  O_27
REMARK   11  A    between atoms: C_29  and  O_30
REMARK   12  A    between atoms: C_33  and  O_38
REMARK   13  A    between atoms: C_34  and  O_35
REMARK   14  A    between atoms: C_39  and  O_58
REMARK   15  A    between atoms: C_41  and  O_57
REMARK   16  A    between atoms: C_44  and  O_45
REMARK   17  A    between atoms: O_45  and  C_46
REMARK   18  A    between atoms: C_48  and  C_49
REMARK   19  A    between atoms: C_49  and  O_50
REMARK   20  A    between atoms: C_51  and  O_52
REMARK   21  A    between atoms: C_53  and  O_54
REMARK   22  A    between atoms: C_55  and  O_56
REMARK                            x       y       z     vdW  Elec       q    Type
REMARK                         _______ _______ _______ _____ _____    ______ ____
ROOT
ATOM      1  C   UNL     1       2.444   4.524   0.101  0.00  0.00    +0.269 C 
ATOM      2  O   UNL     1       2.618   3.482   1.131  0.00  0.00    -0.475 OA
ATOM      3  C   UNL     1       2.318   2.247   0.576  0.00  0.00    +0.140 A 
ATOM      4  C   UNL     1       3.394   0.816   0.780  0.00  0.00    +0.044 A 
ATOM      5  C   UNL     1       3.230  -0.562  -0.395  0.00  0.00    +0.128 A 
ATOM      6  C   UNL     1       2.024  -0.512  -1.735  0.00  0.00    +0.092 A 
ATOM      7  C   UNL     1       0.942   0.928  -1.891  0.00  0.00    +0.131 A 
ATOM      8  C   UNL     1       1.050   2.285  -0.720  0.00  0.00    +0.062 A 
ATOM      9  C   UNL     1       0.283   3.529  -0.755  0.00  0.00    +0.060 C 
ATOM     10  C   UNL     1       0.953   4.626  -0.332  0.00  0.00    +0.147 C 
ENDROOT
BRANCH   1  16
ATOM     11  O   UNL     1       2.691   1.162  -1.022  0.00  0.00    -0.284 OA
ATOM     12  C   UNL     1       3.441   2.105  -1.831  0.00  0.00    +0.224 A 
ATOM     13  C   UNL     1       4.830   2.014  -1.719  0.00  0.00    +0.206 A 
ATOM     14  C   UNL     1       5.551   3.145  -1.295  0.00  0.00    +0.166 A 
ATOM     15  C   UNL     1       4.816   4.238  -0.824  0.00  0.00    +0.057 A 
ATOM     16  C   UNL     1       3.439   4.260  -1.082  0.00  0.00    +0.007 A 
ATOM     17  C   UNL     1       3.005   3.386  -2.072  0.00  0.00    +0.062 A 
BRANCH  13  18
ATOM     18  O   UNL     1       5.486   0.815  -1.851  0.00  0.00    -0.501 OA
ATOM     19  H   UNL     1       6.415   1.035  -1.641  0.00  0.00    +0.292 HD
ENDBRANCH  13  18
BRANCH  14  20
ATOM     20  O   UNL     1       6.905   2.980  -1.163  0.00  0.00    -0.491 OA
ATOM     21  C   UNL     1       7.645   4.191  -1.040  0.00  0.00    +0.277 C 
ENDBRANCH  14  20
ENDBRANCH   1  16
BRANCH   7  22
ATOM     22  O   UNL     1       0.020   0.986  -2.894  0.00  0.00    -0.506 OA
ATOM     23  H   UNL     1       0.202   0.221  -3.466  0.00  0.00    +0.292 HD
ENDBRANCH   7  22
BRANCH   5  24
ATOM     24  O   UNL     1       4.094  -1.612  -0.349  0.00  0.00    -0.506 OA
ATOM     25  H   UNL     1       4.801  -1.314  -0.955  0.00  0.00    +0.292 HD
ENDBRANCH   5  24
BRANCH   4  26
ATOM     26  C   UNL     1       4.353   0.665   1.958  0.00  0.00    +0.060 C 
ATOM     27  C   UNL     1       5.803   0.555   1.475  0.00  0.00    +0.018 C 
BRANCH  26  28
ATOM     28  C   UNL     1       4.081   1.600   3.153  0.00  0.00    +0.043 A 
ATOM     29  C   UNL     1       2.835   1.496   3.835  0.00  0.00    +0.135 A 
ATOM     30  C   UNL     1       2.505   2.315   4.934  0.00  0.00    +0.039 A 
ATOM     31  C   UNL     1       1.155   2.217   5.583  0.00  0.00    +0.078 C 
ATOM     32  C   UNL     1       0.142   1.559   4.664  0.00  0.00    +0.164 C 
ATOM     33  C   UNL     1       0.717   0.320   3.962  0.00  0.00    +0.232 C 
ATOM     34  C   UNL     1       3.476   3.200   5.407  0.00  0.00    +0.127 A 
ATOM     35  C   UNL     1       4.708   3.313   4.776  0.00  0.00    +0.091 A 
ATOM     36  O   UNL     1       1.983   0.540   3.345  0.00  0.00    -0.481 OA
ATOM     37  C   UNL     1       5.001   2.535   3.654  0.00  0.00    +0.128 A 
BRANCH  33  38
ATOM     38  C   UNL     1       0.782  -0.978   4.756  0.00  0.00    -0.001 A 
ATOM     39  C   UNL     1       1.635  -1.145   5.861  0.00  0.00    +0.056 A 
ATOM     40  C   UNL     1       1.675  -2.366   6.528  0.00  0.00    +0.159 A 
ATOM     41  C   UNL     1       0.890  -3.431   6.101  0.00  0.00    +0.158 A 
ATOM     42  C   UNL     1       0.056  -3.299   5.005  0.00  0.00    +0.049 A 
ATOM     43  C   UNL     1       0.001  -2.075   4.336  0.00  0.00    +0.011 A 
BRANCH  41  44
ATOM     44  O   UNL     1       0.948  -4.628   6.754  0.00  0.00    -0.503 OA
ATOM     45  H   UNL     1       1.612  -4.490   7.459  0.00  0.00    +0.292 HD
ENDBRANCH  41  44
BRANCH  40  46
ATOM     46  O   UNL     1       2.485  -2.569   7.611  0.00  0.00    -0.503 OA
ATOM     47  H   UNL     1       3.027  -1.771   7.741  0.00  0.00    +0.292 HD
ENDBRANCH  40  46
ENDBRANCH  33  38
BRANCH  37  48
ATOM     48  O   UNL     1       6.224   2.709   3.070  0.00  0.00    -0.506 OA
ATOM     49  H   UNL     1       6.747   3.335   3.597  0.00  0.00    +0.292 HD
ENDBRANCH  37  48
BRANCH  34  50
ATOM     50  O   UNL     1       3.302   4.001   6.500  0.00  0.00    -0.506 OA
ATOM     51  H   UNL     1       2.422   3.867   6.884  0.00  0.00    +0.292 HD
ENDBRANCH  34  50
BRANCH  32  52
ATOM     52  O   UNL     1      -1.079   1.303   5.360  0.00  0.00    -0.387 OA
ATOM     53  H   UNL     1      -0.947   0.532   5.942  0.00  0.00    +0.210 HD
ENDBRANCH  32  52
ENDBRANCH  26  28
ENDBRANCH   4  26
BRANCH  10  54
ATOM     54  O   UNL     1       0.453   5.915  -0.296  0.00  0.00    -0.461 OA
BRANCH  54  55
ATOM     55  C   UNL     1      -0.847   6.158  -0.856  0.00  0.00    +0.339 C 
ATOM     56  C   UNL     1      -1.313   7.569  -0.435  0.00  0.00    +0.214 C 
ATOM     57  C   UNL     1      -0.430   8.631  -1.114  0.00  0.00    +0.180 C 
ATOM     58  C   UNL     1      -0.374   8.397  -2.632  0.00  0.00    +0.177 C 
ATOM     59  C   UNL     1       0.062   6.958  -2.925  0.00  0.00    +0.179 C 
ATOM     60  O   UNL     1      -0.854   6.037  -2.290  0.00  0.00    -0.331 OA
BRANCH  58  61
ATOM     61  O   UNL     1      -1.682   8.664  -3.175  0.00  0.00    -0.386 OA
ATOM     62  H   UNL     1      -2.196   7.834  -3.151  0.00  0.00    +0.210 HD
ENDBRANCH  58  61
BRANCH  57  63
ATOM     63  O   UNL     1      -0.940   9.946  -0.858  0.00  0.00    -0.386 OA
ATOM     64  H   UNL     1      -1.687  10.074  -1.477  0.00  0.00    +0.210 HD
ENDBRANCH  57  63
BRANCH  56  65
ATOM     65  O   UNL     1      -1.303   7.710   0.991  0.00  0.00    -0.383 OA
ATOM     66  H   UNL     1      -0.373   7.694   1.281  0.00  0.00    +0.210 HD
ENDBRANCH  56  65
BRANCH  59  67
ATOM     67  C   UNL     1       0.061   6.648  -4.425  0.00  0.00    +0.190 C 
BRANCH  67  68
ATOM     68  O   UNL     1       0.579   5.336  -4.641  0.00  0.00    -0.392 OA
ATOM     69  H   UNL     1       0.070   4.739  -4.060  0.00  0.00    +0.210 HD
ENDBRANCH  67  68
ENDBRANCH  59  67
ENDBRANCH  54  55
ENDBRANCH  10  54
TORSDOF 20
