REMARK  Name = opt35.xyz
REMARK  20 active torsions:
REMARK  status: ('A' for Active; 'I' for Inactive)
REMARK    1  A    between atoms: C_3  and  O_44
REMARK    2  A    between atoms: C_4  and  O_43
REMARK    3  A    between atoms: C_6  and  C_7
REMARK    4  A    between atoms: C_11  and  O_42
REMARK    5  A    between atoms: C_13  and  O_41
REMARK    6  A    between atoms: C_16  and  O_17
REMARK    7  A    between atoms: O_17  and  C_18
REMARK    8  A    between atoms: C_19  and  C_39
REMARK    9  A    between atoms: C_21  and  O_32
REMARK   10  A    between atoms: C_22  and  O_25
REMARK   11  A    between atoms: C_23  and  O_24
REMARK   12  A    between atoms: O_25  and  C_26
REMARK   13  A    between atoms: C_26  and  C_28
REMARK   14  A    between atoms: C_28  and  C_29
REMARK   15  A    between atoms: C_29  and  O_31
REMARK   16  A    between atoms: O_32  and  C_33
REMARK   17  A    between atoms: C_33  and  C_35
REMARK   18  A    between atoms: C_35  and  C_36
REMARK   19  A    between atoms: C_36  and  O_38
REMARK   20  A    between atoms: C_39  and  O_40
REMARK                            x       y       z     vdW  Elec       q    Type
REMARK                         _______ _______ _______ _____ _____    ______ ____
ROOT
ATOM      1  C   UNL     1      -3.059  -3.446   3.114  0.00  0.00    +0.236 C 
ATOM      2  C   UNL     1      -4.286  -2.944   3.905  0.00  0.00    +0.191 C 
ATOM      3  O   UNL     1      -5.526  -3.177   3.204  0.00  0.00    -0.329 OA
ATOM      4  C   UNL     1      -5.768  -4.531   2.781  0.00  0.00    +0.355 C 
ATOM      5  C   UNL     1      -4.584  -5.071   1.944  0.00  0.00    +0.277 C 
ATOM      6  C   UNL     1      -3.246  -4.907   2.682  0.00  0.00    +0.204 C 
ENDROOT
BRANCH   6   7
ATOM      7  O   UNL     1      -3.139  -5.755   3.824  0.00  0.00    -0.384 OA
ATOM      8  H   UNL     1      -3.440  -6.659   3.571  0.00  0.00    +0.210 HD
ENDBRANCH   6   7
BRANCH   5   9
ATOM      9  O   UNL     1      -4.744  -6.462   1.611  0.00  0.00    -0.452 OA
BRANCH   9  10
ATOM     10  C   UNL     1      -5.530  -6.715   0.527  0.00  0.00    +0.318 C 
ATOM     11  O   UNL     1      -6.016  -5.848  -0.188  0.00  0.00    -0.250 OA
BRANCH  10  12
ATOM     12  C   UNL     1      -5.757  -8.185   0.359  0.00  0.00    +0.240 C 
BRANCH  12  13
ATOM     13  C   UNL     1      -4.583  -8.881  -0.247  0.00  0.00    +0.316 C 
ATOM     14  O   UNL     1      -3.516  -8.350  -0.517  0.00  0.00    -0.250 OA
BRANCH  13  15
ATOM     15  O   UNL     1      -4.810 -10.196  -0.473  0.00  0.00    -0.480 OA
ATOM     16  H   UNL     1      -5.698 -10.515  -0.218  0.00  0.00    +0.295 HD
ENDBRANCH  13  15
ENDBRANCH  12  13
ENDBRANCH  10  12
ENDBRANCH   9  10
ENDBRANCH   5   9
BRANCH   4  17
ATOM     17  O   UNL     1      -6.044  -5.348   3.927  0.00  0.00    -0.431 OA
BRANCH  17  18
ATOM     18  C   UNL     1      -6.875  -6.404   3.737  0.00  0.00    +0.320 C 
ATOM     19  O   UNL     1      -7.502  -6.643   2.714  0.00  0.00    -0.250 OA
BRANCH  18  20
ATOM     20  C   UNL     1      -6.867  -7.303   4.934  0.00  0.00    +0.240 C 
BRANCH  20  21
ATOM     21  C   UNL     1      -5.680  -8.216   4.908  0.00  0.00    +0.316 C 
ATOM     22  O   UNL     1      -4.754  -8.129   4.113  0.00  0.00    -0.250 OA
BRANCH  21  23
ATOM     23  O   UNL     1      -5.714  -9.164   5.869  0.00  0.00    -0.480 OA
ATOM     24  H   UNL     1      -6.493  -9.145   6.459  0.00  0.00    +0.295 HD
ENDBRANCH  21  23
ENDBRANCH  20  21
ENDBRANCH  18  20
ENDBRANCH  17  18
ENDBRANCH   4  17
BRANCH   2  25
ATOM     25  C   UNL     1      -4.340  -3.426   5.363  0.00  0.00    +0.191 C 
BRANCH  25  26
ATOM     26  O   UNL     1      -5.437  -2.795   6.026  0.00  0.00    -0.392 OA
ATOM     27  H   UNL     1      -6.214  -2.913   5.448  0.00  0.00    +0.210 HD
ENDBRANCH  25  26
ENDBRANCH   2  25
BRANCH   1  28
ATOM     28  O   UNL     1      -2.985  -2.620   1.931  0.00  0.00    -0.483 OA
BRANCH  28  30
ATOM     29  C   UNL     1      -1.883  -1.124   0.444  0.00  0.00    +0.173 C 
ATOM     30  C   UNL     1      -1.809  -2.094   1.479  0.00  0.00    +0.149 C 
ATOM     31  C   UNL     1      -0.561  -2.469   1.925  0.00  0.00    +0.105 C 
ATOM     32  C   UNL     1       0.541  -1.849   1.343  0.00  0.00    +0.019 C 
ATOM     33  C   UNL     1       1.874  -2.092   1.726  0.00  0.00    +0.149 C 
ATOM     34  C   UNL     1       2.933  -1.443   1.096  0.00  0.00    +0.057 C 
ATOM     35  C   UNL     1       2.670  -0.543   0.069  0.00  0.00    +0.105 C 
ATOM     36  C   UNL     1       1.367  -0.281  -0.329  0.00  0.00    +0.138 C 
ATOM     37  C   UNL     1       0.306  -0.928   0.309  0.00  0.00    +0.120 C 
ATOM     38  O   UNL     1      -0.849  -0.638  -0.101  0.00  0.00    -0.456 OA
BRANCH  29  44
ATOM     39  C   UNL     1      -4.284  -0.295   0.644  0.00  0.00    +0.015 A 
ATOM     40  C   UNL     1      -5.445   0.239   0.066  0.00  0.00    +0.050 A 
ATOM     41  C   UNL     1      -5.467   0.498  -1.296  0.00  0.00    +0.158 A 
ATOM     42  C   UNL     1      -4.345   0.235  -2.071  0.00  0.00    +0.159 A 
ATOM     43  C   UNL     1      -3.191  -0.293  -1.506  0.00  0.00    +0.060 A 
ATOM     44  C   UNL     1      -3.136  -0.584  -0.129  0.00  0.00    +0.024 A 
BRANCH  41  45
ATOM     45  O   UNL     1      -6.561   1.020  -1.921  0.00  0.00    -0.503 OA
ATOM     46  H   UNL     1      -7.275   1.138  -1.270  0.00  0.00    +0.292 HD
ENDBRANCH  41  45
BRANCH  42  47
ATOM     47  O   UNL     1      -4.357   0.496  -3.409  0.00  0.00    -0.503 OA
ATOM     48  H   UNL     1      -5.255   0.843  -3.594  0.00  0.00    +0.292 HD
ENDBRANCH  42  47
ENDBRANCH  29  44
BRANCH  35  49
ATOM     49  O   UNL     1       3.738   0.061  -0.518  0.00  0.00    -0.510 OA
ATOM     50  H   UNL     1       3.469   0.652  -1.244  0.00  0.00    +0.292 HD
ENDBRANCH  35  49
BRANCH  33  51
ATOM     51  O   UNL     1       2.113  -2.972   2.743  0.00  0.00    -0.376 OA
ATOM     52  H   UNL     1       3.072  -3.052   2.904  0.00  0.00    +0.211 HD
ENDBRANCH  33  51
ENDBRANCH  28  30
ENDBRANCH   1  28
TORSDOF 20
