REMARK  Name = opt38.xyz
REMARK  14 active torsions:
REMARK  status: ('A' for Active; 'I' for Inactive)
REMARK    1  A    between atoms: C_1  and  C_2
REMARK    2  A    between atoms: C_2  and  C_3
REMARK    3  A    between atoms: C_2  and  C_4
REMARK    4  A    between atoms: C_4  and  C_5
REMARK    5  A    between atoms: C_5  and  C_6
REMARK    6  A    between atoms: C_6  and  C_7
REMARK    7  A    between atoms: C_7  and  C_8
REMARK    8  A    between atoms: C_8  and  C_9
REMARK    9  A    between atoms: C_9  and  C_10
REMARK   10  A    between atoms: N_12  and  C_13
REMARK   11  A    between atoms: C_13  and  C_14
REMARK   12  A    between atoms: C_16  and  O_21
REMARK   13  A    between atoms: C_17  and  O_20
REMARK   14  A    between atoms: O_21  and  C_22
REMARK                            x       y       z     vdW  Elec       q    Type
REMARK                         _______ _______ _______ _____ _____    ______ ____
ROOT
ATOM      1  C   UNL     1       9.158  -5.949  -0.140  0.00  0.00    +0.213 C 
ATOM      2  O   UNL     1       9.942  -6.343   0.719  0.00  0.00    -0.276 OA
ATOM      3  N   UNL     1       8.738  -6.720  -1.195  0.00  0.00    -0.311 N 
ATOM      4  H   UNL     1       8.102  -6.334  -1.878  0.00  0.00    +0.149 HD
ENDROOT
BRANCH   1   5
ATOM      5  C   UNL     1       8.606  -4.535  -0.126  0.00  0.00    +0.096 C 
BRANCH   5   6
ATOM      6  C   UNL     1       7.080  -4.459  -0.100  0.00  0.00    +0.009 C 
BRANCH   6   7
ATOM      7  C   UNL     1       6.477  -5.132   1.136  0.00  0.00    +0.000 C 
BRANCH   7   8
ATOM      8  C   UNL     1       4.950  -5.042   1.128  0.00  0.00    +0.000 C 
BRANCH   8   9
ATOM      9  C   UNL     1       4.348  -5.794   2.317  0.00  0.00    +0.000 C 
BRANCH   9  10
ATOM     10  C   UNL     1       2.818  -5.760   2.280  0.00  0.00    +0.003 C 
BRANCH  10  12
ATOM     11  C   UNL     1       0.642  -6.261   3.430  0.00  0.00    +0.007 C 
ATOM     12  C   UNL     1       2.161  -6.438   3.497  0.00  0.00    -0.017 C 
ATOM     13  C   UNL     1       2.502  -7.926   3.594  0.00  0.00    +0.007 C 
ENDBRANCH  10  12
ENDBRANCH   9  10
ENDBRANCH   8   9
ENDBRANCH   7   8
ENDBRANCH   6   7
ENDBRANCH   5   6
ENDBRANCH   1   5
BRANCH   3  14
ATOM     14  C   UNL     1       9.140  -8.099  -1.354  0.00  0.00    +0.139 C 
BRANCH  14  15
ATOM     15  C   UNL     1       7.930  -8.993  -1.447  0.00  0.00    -0.027 A 
ATOM     16  C   UNL     1       7.241  -9.377  -0.283  0.00  0.00    +0.054 A 
ATOM     17  C   UNL     1       6.090 -10.169  -0.355  0.00  0.00    +0.162 A 
ATOM     18  C   UNL     1       5.607 -10.544  -1.610  0.00  0.00    +0.158 A 
ATOM     19  C   UNL     1       6.292 -10.197  -2.772  0.00  0.00    +0.049 A 
ATOM     20  C   UNL     1       7.446  -9.416  -2.693  0.00  0.00    +0.009 A 
BRANCH  17  21
ATOM     21  O   UNL     1       5.482 -10.442   0.840  0.00  0.00    -0.491 OA
ATOM     22  C   UNL     1       5.017 -11.781   1.007  0.00  0.00    +0.277 C 
ENDBRANCH  17  21
BRANCH  18  23
ATOM     23  O   UNL     1       4.416 -11.192  -1.780  0.00  0.00    -0.503 OA
ATOM     24  H   UNL     1       3.843 -10.889  -1.055  0.00  0.00    +0.292 HD
ENDBRANCH  18  23
ENDBRANCH  14  15
ENDBRANCH   3  14
TORSDOF 11
