REMARK  Name = opt39.xyz
REMARK  5 active torsions:
REMARK  status: ('A' for Active; 'I' for Inactive)
REMARK    1  A    between atoms: C_3  and  O_21
REMARK    2  A    between atoms: C_4  and  O_20
REMARK    3  A    between atoms: C_6  and  C_7
REMARK    4  A    between atoms: C_12  and  O_19
REMARK    5  A    between atoms: C_14  and  O_18
REMARK                            x       y       z     vdW  Elec       q    Type
REMARK                         _______ _______ _______ _____ _____    ______ ____
ROOT
ATOM      1  C   UNL     1      -3.315  -1.308  -0.100  0.00  0.00    +0.139 A 
ATOM      2  O   UNL     1      -3.626  -2.100   0.997  0.00  0.00    -0.454 OA
ATOM      3  C   UNL     1      -4.819  -2.777   1.003  0.00  0.00    +0.146 A 
ATOM      4  C   UNL     1      -5.100  -3.561   2.122  0.00  0.00    +0.092 A 
ATOM      5  C   UNL     1      -6.298  -4.268   2.181  0.00  0.00    +0.124 A 
ATOM      6  C   UNL     1      -7.222  -4.205   1.141  0.00  0.00    +0.091 A 
ATOM      7  C   UNL     1      -6.935  -3.421   0.025  0.00  0.00    +0.135 A 
ATOM      8  C   UNL     1      -5.734  -2.708  -0.045  0.00  0.00    +0.105 A 
ATOM      9  C   UNL     1      -5.396  -1.879  -1.207  0.00  0.00    +0.197 A 
ATOM     10  O   UNL     1      -6.160  -1.783  -2.161  0.00  0.00    -0.287 OA
ATOM     11  C   UNL     1      -4.107  -1.173  -1.174  0.00  0.00    +0.098 A 
ENDROOT
BRANCH   1  17
ATOM     12  C   UNL     1      -0.926  -1.270   0.641  0.00  0.00    +0.015 A 
ATOM     13  C   UNL     1       0.321  -0.646   0.767  0.00  0.00    +0.050 A 
ATOM     14  C   UNL     1       0.492   0.630   0.252  0.00  0.00    +0.158 A 
ATOM     15  C   UNL     1      -0.566   1.278  -0.377  0.00  0.00    +0.159 A 
ATOM     16  C   UNL     1      -1.807   0.667  -0.503  0.00  0.00    +0.060 A 
ATOM     17  C   UNL     1      -2.005  -0.628  -0.000  0.00  0.00    +0.021 A 
BRANCH  14  18
ATOM     18  O   UNL     1       1.683   1.295   0.344  0.00  0.00    -0.503 OA
ATOM     19  H   UNL     1       2.314   0.725   0.816  0.00  0.00    +0.292 HD
ENDBRANCH  14  18
BRANCH  15  20
ATOM     20  O   UNL     1      -0.392   2.537  -0.877  0.00  0.00    -0.503 OA
ATOM     21  H   UNL     1       0.539   2.757  -0.673  0.00  0.00    +0.292 HD
ENDBRANCH  15  20
ENDBRANCH   1  17
BRANCH   5  22
ATOM     22  O   UNL     1      -6.533  -5.023   3.292  0.00  0.00    -0.507 OA
ATOM     23  H   UNL     1      -7.401  -5.452   3.201  0.00  0.00    +0.292 HD
ENDBRANCH   5  22
BRANCH   7  24
ATOM     24  O   UNL     1      -7.877  -3.395  -0.968  0.00  0.00    -0.506 OA
ATOM     25  H   UNL     1      -7.547  -2.809  -1.688  0.00  0.00    +0.292 HD
ENDBRANCH   7  24
TORSDOF 5
