REMARK  Name = opt33.xyz
REMARK  16 active torsions:
REMARK  status: ('A' for Active; 'I' for Inactive)
REMARK    1  A    between atoms: C_3  and  O_38
REMARK    2  A    between atoms: C_4  and  O_37
REMARK    3  A    between atoms: C_6  and  C_7
REMARK    4  A    between atoms: C_11  and  O_36
REMARK    5  A    between atoms: C_13  and  O_35
REMARK    6  A    between atoms: C_16  and  O_17
REMARK    7  A    between atoms: O_17  and  C_18
REMARK    8  A    between atoms: C_19  and  O_34
REMARK    9  A    between atoms: C_20  and  O_33
REMARK   10  A    between atoms: C_21  and  O_32
REMARK   11  A    between atoms: C_22  and  C_24
REMARK   12  A    between atoms: C_24  and  O_25
REMARK   13  A    between atoms: O_25  and  C_26
REMARK   14  A    between atoms: C_26  and  C_28
REMARK   15  A    between atoms: C_28  and  C_29
REMARK   16  A    between atoms: C_29  and  O_31
REMARK                            x       y       z     vdW  Elec       q    Type
REMARK                         _______ _______ _______ _____ _____    ______ ____
ROOT
ATOM      1  C   UNL     1      -3.225  -1.520  -0.264  0.00  0.00    +0.173 C 
ATOM      2  C   UNL     1      -3.666  -2.279   0.850  0.00  0.00    +0.152 C 
ATOM      3  C   UNL     1      -4.955  -2.770   0.825  0.00  0.00    +0.105 C 
ATOM      4  C   UNL     1      -5.729  -2.494  -0.297  0.00  0.00    +0.019 C 
ATOM      5  C   UNL     1      -7.049  -2.950  -0.471  0.00  0.00    +0.149 C 
ATOM      6  C   UNL     1      -7.780  -2.619  -1.608  0.00  0.00    +0.057 C 
ATOM      7  C   UNL     1      -7.195  -1.821  -2.585  0.00  0.00    +0.105 C 
ATOM      8  C   UNL     1      -5.893  -1.363  -2.445  0.00  0.00    +0.138 C 
ATOM      9  C   UNL     1      -5.158  -1.702  -1.306  0.00  0.00    +0.120 C 
ATOM     10  O   UNL     1      -3.990  -1.237  -1.234  0.00  0.00    -0.456 OA
ENDROOT
BRANCH   1  16
ATOM     11  C   UNL     1      -0.697  -1.516   0.022  0.00  0.00    +0.015 A 
ATOM     12  C   UNL     1       0.552  -0.896  -0.124  0.00  0.00    +0.050 A 
ATOM     13  C   UNL     1       0.617   0.368  -0.689  0.00  0.00    +0.158 A 
ATOM     14  C   UNL     1      -0.546   1.001  -1.109  0.00  0.00    +0.159 A 
ATOM     15  C   UNL     1      -1.786   0.389  -0.971  0.00  0.00    +0.060 A 
ATOM     16  C   UNL     1      -1.892  -0.888  -0.388  0.00  0.00    +0.024 A 
BRANCH  14  17
ATOM     17  O   UNL     1      -0.488   2.243  -1.671  0.00  0.00    -0.503 OA
ATOM     18  H   UNL     1       0.463   2.478  -1.675  0.00  0.00    +0.292 HD
ENDBRANCH  14  17
BRANCH  13  19
ATOM     19  O   UNL     1       1.797   1.029  -0.862  0.00  0.00    -0.503 OA
ATOM     20  H   UNL     1       2.529   0.458  -0.570  0.00  0.00    +0.292 HD
ENDBRANCH  13  19
ENDBRANCH   1  16
BRANCH   7  21
ATOM     21  O   UNL     1      -7.954  -1.513  -3.672  0.00  0.00    -0.510 OA
ATOM     22  H   UNL     1      -7.480  -0.933  -4.293  0.00  0.00    +0.292 HD
ENDBRANCH   7  21
BRANCH   5  23
ATOM     23  O   UNL     1      -7.606  -3.730   0.502  0.00  0.00    -0.376 OA
ATOM     24  H   UNL     1      -8.514  -3.990   0.254  0.00  0.00    +0.211 HD
ENDBRANCH   5  23
BRANCH   2  25
ATOM     25  O   UNL     1      -2.803  -2.423   1.902  0.00  0.00    -0.461 OA
BRANCH  25  26
ATOM     26  C   UNL     1      -3.110  -3.317   2.979  0.00  0.00    +0.339 C 
ATOM     27  C   UNL     1      -3.710  -2.540   4.168  0.00  0.00    +0.214 C 
ATOM     28  C   UNL     1      -2.627  -1.664   4.820  0.00  0.00    +0.180 C 
ATOM     29  C   UNL     1      -1.398  -2.502   5.202  0.00  0.00    +0.178 C 
ATOM     30  C   UNL     1      -0.888  -3.211   3.937  0.00  0.00    +0.191 C 
ATOM     31  O   UNL     1      -1.925  -4.024   3.366  0.00  0.00    -0.330 OA
BRANCH  29  32
ATOM     32  O   UNL     1      -1.814  -3.463   6.189  0.00  0.00    -0.386 OA
ATOM     33  H   UNL     1      -1.037  -3.703   6.729  0.00  0.00    +0.210 HD
ENDBRANCH  29  32
BRANCH  28  34
ATOM     34  O   UNL     1      -3.156  -1.019   5.981  0.00  0.00    -0.386 OA
ATOM     35  H   UNL     1      -3.533  -1.733   6.535  0.00  0.00    +0.210 HD
ENDBRANCH  28  34
BRANCH  27  36
ATOM     36  O   UNL     1      -4.270  -3.447   5.131  0.00  0.00    -0.383 OA
ATOM     37  H   UNL     1      -3.514  -3.898   5.572  0.00  0.00    +0.210 HD
ENDBRANCH  27  36
BRANCH  30  38
ATOM     38  C   UNL     1       0.324  -4.111   4.220  0.00  0.00    +0.266 C 
BRANCH  38  39
ATOM     39  O   UNL     1       0.683  -4.811   3.010  0.00  0.00    -0.462 OA
BRANCH  39  40
ATOM     40  C   UNL     1       0.140  -6.057   2.880  0.00  0.00    +0.318 C 
ATOM     41  O   UNL     1      -0.392  -6.692   3.781  0.00  0.00    -0.250 OA
BRANCH  40  42
ATOM     42  C   UNL     1       0.363  -6.613   1.510  0.00  0.00    +0.240 C 
BRANCH  42  43
ATOM     43  C   UNL     1       0.230  -5.584   0.430  0.00  0.00    +0.316 C 
ATOM     44  O   UNL     1      -0.786  -4.933   0.218  0.00  0.00    -0.250 OA
BRANCH  43  45
ATOM     45  O   UNL     1       1.345  -5.413  -0.317  0.00  0.00    -0.480 OA
ATOM     46  H   UNL     1       2.102  -5.987  -0.084  0.00  0.00    +0.295 HD
ENDBRANCH  43  45
ENDBRANCH  42  43
ENDBRANCH  40  42
ENDBRANCH  39  40
ENDBRANCH  38  39
ENDBRANCH  30  38
ENDBRANCH  25  26
ENDBRANCH   2  25
TORSDOF 16
