REMARK  Name = opt32.xyz
REMARK  13 active torsions:
REMARK  status: ('A' for Active; 'I' for Inactive)
REMARK    1  A    between atoms: C_1  and  O_2
REMARK    2  A    between atoms: O_2  and  C_3
REMARK    3  A    between atoms: C_4  and  O_33
REMARK    4  A    between atoms: C_7  and  C_9
REMARK    5  A    between atoms: C_13  and  O_32
REMARK    6  A    between atoms: C_15  and  O_31
REMARK    7  A    between atoms: C_18  and  O_19
REMARK    8  A    between atoms: O_19  and  C_20
REMARK    9  A    between atoms: C_21  and  O_30
REMARK   10  A    between atoms: C_22  and  O_29
REMARK   11  A    between atoms: C_23  and  O_28
REMARK   12  A    between atoms: C_24  and  C_26
REMARK   13  A    between atoms: C_26  and  O_27
REMARK                            x       y       z     vdW  Elec       q    Type
REMARK                         _______ _______ _______ _____ _____    ______ ____
ROOT
ATOM      1  C   UNL     1       5.774   3.161  -0.572  0.00  0.00    +0.242 C 
ATOM      2  C   UNL     1       6.967   3.547   0.090  0.00  0.00    +0.154 C 
ATOM      3  C   UNL     1       6.901   4.611   0.971  0.00  0.00    +0.056 C 
ATOM      4  C   UNL     1       5.667   5.226   1.152  0.00  0.00    +0.033 C 
ATOM      5  C   UNL     1       5.415   6.243   2.091  0.00  0.00    +0.152 C 
ATOM      6  C   UNL     1       4.155   6.828   2.195  0.00  0.00    +0.057 C 
ATOM      7  C   UNL     1       3.134   6.407   1.349  0.00  0.00    +0.105 C 
ATOM      8  C   UNL     1       3.350   5.399   0.423  0.00  0.00    +0.137 C 
ATOM      9  C   UNL     1       4.608   4.800   0.339  0.00  0.00    +0.118 C 
ATOM     10  O   UNL     1       4.728   3.874  -0.504  0.00  0.00    -0.472 OA
ENDROOT
BRANCH   1  13
ATOM     11  C   UNL     1       3.855   0.541  -2.517  0.00  0.00    +0.162 A 
ATOM     12  C   UNL     1       4.291   1.760  -1.991  0.00  0.00    +0.057 A 
ATOM     13  C   UNL     1       5.515   1.892  -1.298  0.00  0.00    +0.012 A 
ATOM     14  C   UNL     1       6.326   0.745  -1.235  0.00  0.00    +0.012 A 
ATOM     15  C   UNL     1       5.923  -0.470  -1.812  0.00  0.00    +0.049 A 
ATOM     16  C   UNL     1       4.684  -0.573  -2.439  0.00  0.00    +0.158 A 
BRANCH  11  18
ATOM     17  C   UNL     1       1.749  -0.472  -2.671  0.00  0.00    +0.277 C 
ATOM     18  O   UNL     1       2.616   0.580  -3.095  0.00  0.00    -0.491 OA
ENDBRANCH  11  18
BRANCH  16  19
ATOM     19  O   UNL     1       4.289  -1.763  -2.974  0.00  0.00    -0.503 OA
ATOM     20  H   UNL     1       5.007  -2.414  -2.903  0.00  0.00    +0.292 HD
ENDBRANCH  16  19
ENDBRANCH   1  13
BRANCH   5  21
ATOM     21  O   UNL     1       6.428   6.632   2.919  0.00  0.00    -0.376 OA
ATOM     22  H   UNL     1       6.108   7.301   3.555  0.00  0.00    +0.211 HD
ENDBRANCH   5  21
BRANCH   7  23
ATOM     23  O   UNL     1       1.926   7.019   1.476  0.00  0.00    -0.510 OA
ATOM     24  H   UNL     1       1.280   6.691   0.825  0.00  0.00    +0.292 HD
ENDBRANCH   7  23
BRANCH   2  25
ATOM     25  O   UNL     1       8.148   2.918  -0.205  0.00  0.00    -0.461 OA
BRANCH  25  26
ATOM     26  C   UNL     1       9.063   2.680   0.879  0.00  0.00    +0.339 C 
ATOM     27  C   UNL     1      10.251   3.667   0.863  0.00  0.00    +0.214 C 
ATOM     28  C   UNL     1      11.216   3.371  -0.293  0.00  0.00    +0.180 C 
ATOM     29  C   UNL     1      11.628   1.897  -0.302  0.00  0.00    +0.177 C 
ATOM     30  C   UNL     1      10.364   1.029  -0.315  0.00  0.00    +0.179 C 
ATOM     31  O   UNL     1       9.514   1.319   0.818  0.00  0.00    -0.331 OA
BRANCH  27  32
ATOM     32  O   UNL     1      10.972   3.602   2.106  0.00  0.00    -0.383 OA
ATOM     33  H   UNL     1      11.374   2.704   2.157  0.00  0.00    +0.210 HD
ENDBRANCH  27  32
BRANCH  28  34
ATOM     34  O   UNL     1      12.387   4.186  -0.165  0.00  0.00    -0.386 OA
ATOM     35  H   UNL     1      12.485   4.395   0.788  0.00  0.00    +0.210 HD
ENDBRANCH  28  34
BRANCH  29  36
ATOM     36  O   UNL     1      12.402   1.630   0.879  0.00  0.00    -0.386 OA
ATOM     37  H   UNL     1      13.259   2.084   0.742  0.00  0.00    +0.210 HD
ENDBRANCH  29  36
BRANCH  30  38
ATOM     38  C   UNL     1      10.698  -0.464  -0.269  0.00  0.00    +0.190 C 
BRANCH  38  39
ATOM     39  O   UNL     1       9.479  -1.211  -0.351  0.00  0.00    -0.392 OA
ATOM     40  H   UNL     1       9.051  -1.093   0.517  0.00  0.00    +0.210 HD
ENDBRANCH  38  39
ENDBRANCH  30  38
ENDBRANCH  25  26
ENDBRANCH   2  25
TORSDOF 12
