REMARK  Name = opt34.xyz
REMARK  17 active torsions:
REMARK  status: ('A' for Active; 'I' for Inactive)
REMARK    1  A    between atoms: C_1  and  O_2
REMARK    2  A    between atoms: O_2  and  C_3
REMARK    3  A    between atoms: C_5  and  C_10
REMARK    4  A    between atoms: C_8  and  O_9
REMARK    5  A    between atoms: C_14  and  O_39
REMARK    6  A    between atoms: C_16  and  O_38
REMARK    7  A    between atoms: C_19  and  O_20
REMARK    8  A    between atoms: O_20  and  C_21
REMARK    9  A    between atoms: C_23  and  C_24
REMARK   10  A    between atoms: C_24  and  O_25
REMARK   11  A    between atoms: O_25  and  C_26
REMARK   12  A    between atoms: C_26  and  C_28
REMARK   13  A    between atoms: C_28  and  C_29
REMARK   14  A    between atoms: C_29  and  O_30
REMARK   15  A    between atoms: C_32  and  O_33
REMARK   16  A    between atoms: C_34  and  O_35
REMARK   17  A    between atoms: C_36  and  O_37
REMARK                            x       y       z     vdW  Elec       q    Type
REMARK                         _______ _______ _______ _____ _____    ______ ____
ROOT
ATOM      1  C   UNL     1       1.940   4.071   0.906  0.00  0.00    +0.269 C 
ATOM      2  O   UNL     1       2.319   2.787   1.438  0.00  0.00    -0.476 OA
ATOM      3  C   UNL     1       1.968   1.716   0.662  0.00  0.00    +0.136 A 
ATOM      4  C   UNL     1       2.740   0.566   0.821  0.00  0.00    +0.092 A 
ATOM      5  C   UNL     1       2.467  -0.544   0.033  0.00  0.00    +0.124 A 
ATOM      6  C   UNL     1       1.430  -0.525  -0.894  0.00  0.00    +0.091 A 
ATOM      7  C   UNL     1       0.642   0.621  -1.020  0.00  0.00    +0.131 A 
ATOM      8  C   UNL     1       0.892   1.753  -0.234  0.00  0.00    +0.062 A 
ATOM      9  C   UNL     1       0.078   2.969  -0.317  0.00  0.00    +0.060 C 
ATOM     10  C   UNL     1       0.595   4.097   0.196  0.00  0.00    +0.147 C 
ENDROOT
BRANCH   1  13
ATOM     11  C   UNL     1       5.282   5.725   0.118  0.00  0.00    +0.162 A 
ATOM     12  C   UNL     1       4.227   5.115   0.798  0.00  0.00    +0.057 A 
ATOM     13  C   UNL     1       3.099   4.651   0.103  0.00  0.00    +0.004 A 
ATOM     14  C   UNL     1       3.096   4.736  -1.301  0.00  0.00    +0.011 A 
ATOM     15  C   UNL     1       4.165   5.319  -1.987  0.00  0.00    +0.049 A 
ATOM     16  C   UNL     1       5.251   5.819  -1.274  0.00  0.00    +0.158 A 
BRANCH  16  17
ATOM     17  O   UNL     1       6.284   6.429  -1.929  0.00  0.00    -0.503 OA
ATOM     18  H   UNL     1       6.103   6.423  -2.881  0.00  0.00    +0.292 HD
ENDBRANCH  16  17
BRANCH  11  20
ATOM     19  C   UNL     1       6.005   7.203   1.739  0.00  0.00    +0.277 C 
ATOM     20  O   UNL     1       6.375   6.201   0.794  0.00  0.00    -0.491 OA
ENDBRANCH  11  20
ENDBRANCH   1  13
BRANCH   7  21
ATOM     21  O   UNL     1      -0.369   0.653  -1.945  0.00  0.00    -0.506 OA
ATOM     22  H   UNL     1      -0.377  -0.195  -2.421  0.00  0.00    +0.292 HD
ENDBRANCH   7  21
BRANCH   5  23
ATOM     23  O   UNL     1       3.213  -1.681   0.129  0.00  0.00    -0.507 OA
ATOM     24  H   UNL     1       3.908  -1.542   0.795  0.00  0.00    +0.292 HD
ENDBRANCH   5  23
BRANCH  10  25
ATOM     25  O   UNL     1       0.048   5.356   0.129  0.00  0.00    -0.461 OA
BRANCH  25  26
ATOM     26  C   UNL     1      -1.357   5.524  -0.095  0.00  0.00    +0.339 C 
ATOM     27  C   UNL     1      -1.694   7.010   0.169  0.00  0.00    +0.214 C 
ATOM     28  C   UNL     1      -1.067   7.883  -0.936  0.00  0.00    +0.180 C 
ATOM     29  C   UNL     1      -1.483   7.375  -2.325  0.00  0.00    +0.178 C 
ATOM     30  C   UNL     1      -1.098   5.893  -2.453  0.00  0.00    +0.191 C 
ATOM     31  O   UNL     1      -1.770   5.150  -1.418  0.00  0.00    -0.330 OA
BRANCH  29  32
ATOM     32  O   UNL     1      -2.905   7.567  -2.452  0.00  0.00    -0.386 OA
ATOM     33  H   UNL     1      -3.329   6.724  -2.191  0.00  0.00    +0.210 HD
ENDBRANCH  29  32
BRANCH  28  34
ATOM     34  O   UNL     1      -1.478   9.246  -0.771  0.00  0.00    -0.386 OA
ATOM     35  H   UNL     1      -2.377   9.307  -1.155  0.00  0.00    +0.210 HD
ENDBRANCH  28  34
BRANCH  27  36
ATOM     36  O   UNL     1      -1.256   7.413   1.475  0.00  0.00    -0.383 OA
ATOM     37  H   UNL     1      -0.529   8.052   1.361  0.00  0.00    +0.210 HD
ENDBRANCH  27  36
BRANCH  30  38
ATOM     38  C   UNL     1      -1.468   5.266  -3.805  0.00  0.00    +0.266 C 
BRANCH  38  39
ATOM     39  O   UNL     1      -2.888   5.328  -4.037  0.00  0.00    -0.462 OA
BRANCH  39  40
ATOM     40  C   UNL     1      -3.309   6.055  -5.106  0.00  0.00    +0.318 C 
ATOM     41  O   UNL     1      -2.581   6.646  -5.897  0.00  0.00    -0.250 OA
BRANCH  40  42
ATOM     42  C   UNL     1      -4.800   6.050  -5.178  0.00  0.00    +0.240 C 
BRANCH  42  43
ATOM     43  C   UNL     1      -5.429   6.760  -6.341  0.00  0.00    +0.316 C 
ATOM     44  O   UNL     1      -6.643   6.753  -6.507  0.00  0.00    -0.250 OA
BRANCH  43  45
ATOM     45  O   UNL     1      -4.617   7.413  -7.195  0.00  0.00    -0.480 OA
ATOM     46  H   UNL     1      -3.654   7.365  -6.984  0.00  0.00    +0.295 HD
ENDBRANCH  43  45
ENDBRANCH  42  43
ENDBRANCH  40  42
ENDBRANCH  39  40
ENDBRANCH  38  39
ENDBRANCH  30  38
ENDBRANCH  25  26
ENDBRANCH  10  25
TORSDOF 16
