REMARK  Name = opt45.xyz
REMARK  30 active torsions:
REMARK  status: ('A' for Active; 'I' for Inactive)
REMARK    1  A    between atoms: C_1  and  O_2
REMARK    2  A    between atoms: O_2  and  C_3
REMARK    3  A    between atoms: C_5  and  C_10
REMARK    4  A    between atoms: C_8  and  O_9
REMARK    5  A    between atoms: C_11  and  O_33
REMARK    6  A    between atoms: C_14  and  O_15
REMARK    7  A    between atoms: O_15  and  C_16
REMARK    8  A    between atoms: C_18  and  C_19
REMARK    9  A    between atoms: C_19  and  O_20
REMARK   10  A    between atoms: C_21  and  O_22
REMARK   11  A    between atoms: C_23  and  O_24
REMARK   12  A    between atoms: C_25  and  O_26
REMARK   13  A    between atoms: C_28  and  O_29
REMARK   14  A    between atoms: O_33  and  C_34
REMARK   15  A    between atoms: C_36  and  C_37
REMARK   16  A    between atoms: C_37  and  O_38
REMARK   17  A    between atoms: O_38  and  C_39
REMARK   18  A    between atoms: C_41  and  C_42
REMARK   19  A    between atoms: C_43  and  O_44
REMARK   20  A    between atoms: O_44  and  C_45
REMARK   21  A    between atoms: C_48  and  C_49
REMARK   22  A    between atoms: C_50  and  C_51
REMARK   23  A    between atoms: C_51  and  O_52
REMARK   24  A    between atoms: C_55  and  O_56
REMARK   25  A    between atoms: O_56  and  C_57
REMARK   26  A    between atoms: C_58  and  O_59
REMARK   27  A    between atoms: C_60  and  O_61
REMARK   28  A    between atoms: C_62  and  O_63
REMARK   29  A    between atoms: C_64  and  O_65
REMARK   30  A    between atoms: C_66  and  O_67
REMARK                            x       y       z     vdW  Elec       q    Type
REMARK                         _______ _______ _______ _____ _____    ______ ____
ROOT
ATOM      1  C   UNL     1       2.707   8.908  -3.104  0.00  0.00    +0.339 C 
ATOM      2  O   UNL     1       3.675   9.894  -2.686  0.00  0.00    -0.331 OA
ATOM      3  C   UNL     1       3.050  11.052  -2.099  0.00  0.00    +0.179 C 
ATOM      4  C   UNL     1       2.168  11.760  -3.142  0.00  0.00    +0.177 C 
ATOM      5  C   UNL     1       1.147  10.777  -3.735  0.00  0.00    +0.180 C 
ATOM      6  C   UNL     1       1.842   9.503  -4.231  0.00  0.00    +0.214 C 
ENDROOT
BRANCH   6   7
ATOM      7  O   UNL     1       0.874   8.571  -4.727  0.00  0.00    -0.383 OA
ATOM      8  H   UNL     1       0.213   9.117  -5.202  0.00  0.00    +0.210 HD
ENDBRANCH   6   7
BRANCH   4   9
ATOM      9  O   UNL     1       2.955  12.276  -4.235  0.00  0.00    -0.386 OA
ATOM     10  H   UNL     1       3.725  11.688  -4.354  0.00  0.00    +0.210 HD
ENDBRANCH   4   9
BRANCH   5  11
ATOM     11  O   UNL     1       0.467  11.380  -4.851  0.00  0.00    -0.386 OA
ATOM     12  H   UNL     1       1.080  12.060  -5.201  0.00  0.00    +0.210 HD
ENDBRANCH   5  11
BRANCH   3  13
ATOM     13  C   UNL     1       4.150  11.962  -1.544  0.00  0.00    +0.197 C 
BRANCH  13  14
ATOM     14  O   UNL     1       3.547  13.009  -0.785  0.00  0.00    -0.346 OA
BRANCH  14  15
ATOM     15  C   UNL     1       4.520  13.776  -0.060  0.00  0.00    +0.282 C 
ATOM     16  O   UNL     1       5.173  12.984   0.931  0.00  0.00    -0.342 OA
ATOM     17  C   UNL     1       4.276  12.478   1.934  0.00  0.00    +0.161 C 
ATOM     18  C   UNL     1       5.094  11.594   2.870  0.00  0.00    +0.042 C 
ATOM     19  C   UNL     1       3.557  13.622   2.682  0.00  0.00    +0.233 C 
ATOM     20  C   UNL     1       2.815  14.481   1.643  0.00  0.00    +0.191 C 
ATOM     21  C   UNL     1       3.803  14.984   0.575  0.00  0.00    +0.202 C 
BRANCH  21  22
ATOM     22  O   UNL     1       3.114  15.758  -0.416  0.00  0.00    -0.384 OA
ATOM     23  H   UNL     1       2.543  15.136  -0.906  0.00  0.00    +0.210 HD
ENDBRANCH  21  22
BRANCH  20  24
ATOM     24  O   UNL     1       2.115  15.564   2.270  0.00  0.00    -0.385 OA
ATOM     25  H   UNL     1       2.703  16.342   2.255  0.00  0.00    +0.210 HD
ENDBRANCH  20  24
BRANCH  19  26
ATOM     26  O   UNL     1       4.558  14.420   3.338  0.00  0.00    -0.480 OA
BRANCH  26  27
ATOM     27  C   UNL     1       4.334  14.980   4.561  0.00  0.00    +0.163 A 
ATOM     28  C   UNL     1       5.417  15.585   5.222  0.00  0.00    +0.162 A 
ATOM     29  C   UNL     1       5.226  16.153   6.495  0.00  0.00    +0.057 A 
ATOM     30  C   UNL     1       3.980  16.136   7.130  0.00  0.00    -0.021 A 
ATOM     31  C   UNL     1       2.903  15.572   6.449  0.00  0.00    +0.012 A 
ATOM     32  C   UNL     1       3.079  15.001   5.183  0.00  0.00    +0.050 A 
BRANCH  28  33
ATOM     33  O   UNL     1       6.716  15.715   4.801  0.00  0.00    -0.491 OA
ATOM     34  C   UNL     1       7.062  15.334   3.478  0.00  0.00    +0.277 C 
ENDBRANCH  28  33
BRANCH  30  35
ATOM     35  C   UNL     1       3.749  16.738   8.451  0.00  0.00    +0.015 C 
ATOM     36  C   UNL     1       4.669  16.763   9.428  0.00  0.00    +0.092 C 
BRANCH  36  37
ATOM     37  C   UNL     1       4.425  17.308  10.775  0.00  0.00    +0.330 C 
ATOM     38  O   UNL     1       4.977  16.860  11.765  0.00  0.00    -0.246 OA
BRANCH  37  39
ATOM     39  O   UNL     1       3.587  18.362  10.805  0.00  0.00    -0.478 OA
ATOM     40  H   UNL     1       3.371  18.724   9.928  0.00  0.00    +0.295 HD
ENDBRANCH  37  39
ENDBRANCH  36  37
ENDBRANCH  30  35
ENDBRANCH  26  27
ENDBRANCH  19  26
ENDBRANCH  14  15
ENDBRANCH  13  14
ENDBRANCH   3  13
BRANCH   1  41
ATOM     41  O   UNL     1       1.886   8.526  -1.996  0.00  0.00    -0.461 OA
BRANCH  41  51
ATOM     42  C   UNL     1       0.922   6.905  -0.580  0.00  0.00    +0.173 C 
ATOM     43  O   UNL     1       0.739   5.636  -0.062  0.00  0.00    -0.452 OA
ATOM     44  C   UNL     1       1.456   4.593  -0.591  0.00  0.00    +0.139 A 
ATOM     45  C   UNL     1       1.212   3.334  -0.045  0.00  0.00    +0.092 A 
ATOM     46  C   UNL     1       1.924   2.237  -0.510  0.00  0.00    +0.124 A 
ATOM     47  C   UNL     1       2.874   2.377  -1.515  0.00  0.00    +0.091 A 
ATOM     48  C   UNL     1       3.081   3.634  -2.086  0.00  0.00    +0.135 A 
ATOM     49  C   UNL     1       2.394   4.762  -1.611  0.00  0.00    +0.044 A 
ATOM     50  C   UNL     1       2.660   6.140  -2.161  0.00  0.00    +0.120 C 
ATOM     51  C   UNL     1       1.798   7.217  -1.556  0.00  0.00    +0.148 C 
BRANCH  42  56
ATOM     52  C   UNL     1      -2.233   8.863   0.045  0.00  0.00    +0.162 A 
ATOM     53  C   UNL     1      -1.849   9.632   1.152  0.00  0.00    +0.158 A 
ATOM     54  C   UNL     1      -0.561   9.542   1.683  0.00  0.00    +0.050 A 
ATOM     55  C   UNL     1       0.363   8.666   1.109  0.00  0.00    +0.015 A 
ATOM     56  C   UNL     1      -0.004   7.886   0.007  0.00  0.00    +0.024 A 
ATOM     57  C   UNL     1      -1.298   7.995  -0.525  0.00  0.00    +0.061 A 
BRANCH  52  59
ATOM     58  C   UNL     1      -3.965   8.157  -1.431  0.00  0.00    +0.277 C 
ATOM     59  O   UNL     1      -3.522   9.021  -0.393  0.00  0.00    -0.491 OA
ENDBRANCH  52  59
BRANCH  53  60
ATOM     60  O   UNL     1      -2.763  10.476   1.725  0.00  0.00    -0.503 OA
ATOM     61  H   UNL     1      -2.399  10.831   2.550  0.00  0.00    +0.292 HD
ENDBRANCH  53  60
ENDBRANCH  42  56
BRANCH  46  62
ATOM     62  O   UNL     1       1.671   1.028   0.069  0.00  0.00    -0.507 OA
ATOM     63  H   UNL     1       2.241   0.353  -0.333  0.00  0.00    +0.292 HD
ENDBRANCH  46  62
BRANCH  48  64
ATOM     64  O   UNL     1       4.101   3.810  -2.970  0.00  0.00    -0.460 OA
BRANCH  64  65
ATOM     65  C   UNL     1       3.922   3.327  -4.320  0.00  0.00    +0.339 C 
ATOM     66  C   UNL     1       5.101   2.383  -4.695  0.00  0.00    +0.214 C 
ATOM     67  C   UNL     1       4.682   0.933  -4.942  0.00  0.00    +0.180 C 
ATOM     68  C   UNL     1       3.356   0.858  -5.691  0.00  0.00    +0.177 C 
ATOM     69  C   UNL     1       2.293   1.583  -4.864  0.00  0.00    +0.179 C 
ATOM     70  O   UNL     1       2.609   2.977  -4.764  0.00  0.00    -0.331 OA
BRANCH  67  71
ATOM     71  O   UNL     1       5.684   0.250  -5.714  0.00  0.00    -0.386 OA
ATOM     72  H   UNL     1       5.556   0.530  -6.642  0.00  0.00    +0.210 HD
ENDBRANCH  67  71
BRANCH  68  73
ATOM     73  O   UNL     1       3.518   1.459  -6.989  0.00  0.00    -0.386 OA
ATOM     74  H   UNL     1       3.153   2.363  -6.955  0.00  0.00    +0.210 HD
ENDBRANCH  68  73
BRANCH  66  75
ATOM     75  O   UNL     1       6.154   2.420  -3.713  0.00  0.00    -0.383 OA
ATOM     76  H   UNL     1       5.930   3.114  -3.063  0.00  0.00    +0.210 HD
ENDBRANCH  66  75
BRANCH  69  77
ATOM     77  C   UNL     1       0.899   1.457  -5.499  0.00  0.00    +0.190 C 
BRANCH  77  78
ATOM     78  O   UNL     1       0.551   0.101  -5.744  0.00  0.00    -0.392 OA
ATOM     79  H   UNL     1       0.819  -0.111  -6.658  0.00  0.00    +0.210 HD
ENDBRANCH  77  78
ENDBRANCH  69  77
ENDBRANCH  64  65
ENDBRANCH  48  64
ENDBRANCH  41  51
ENDBRANCH   1  41
TORSDOF 27
