REMARK  Name = opt44.xyz
REMARK  28 active torsions:
REMARK  status: ('A' for Active; 'I' for Inactive)
REMARK    1  A    between atoms: C_1  and  O_2
REMARK    2  A    between atoms: O_2  and  C_3
REMARK    3  A    between atoms: C_5  and  C_61
REMARK    4  A    between atoms: C_8  and  O_9
REMARK    5  A    between atoms: O_9  and  C_10
REMARK    6  A    between atoms: C_11  and  C_12
REMARK    7  A    between atoms: C_14  and  O_15
REMARK    8  A    between atoms: O_15  and  C_16
REMARK    9  A    between atoms: C_16  and  C_17
REMARK   10  A    between atoms: C_19  and  O_20
REMARK   11  A    between atoms: O_20  and  C_21
REMARK   12  A    between atoms: C_22  and  C_44
REMARK   13  A    between atoms: C_26  and  O_43
REMARK   14  A    between atoms: C_28  and  O_31
REMARK   15  A    between atoms: O_31  and  C_32
REMARK   16  A    between atoms: C_34  and  C_35
REMARK   17  A    between atoms: C_35  and  O_36
REMARK   18  A    between atoms: C_37  and  O_38
REMARK   19  A    between atoms: C_39  and  O_40
REMARK   20  A    between atoms: C_41  and  O_42
REMARK   21  A    between atoms: C_47  and  O_48
REMARK   22  A    between atoms: C_51  and  O_52
REMARK   23  A    between atoms: C_53  and  O_54
REMARK   24  A    between atoms: C_55  and  O_56
REMARK   25  A    between atoms: C_57  and  O_58
REMARK   26  A    between atoms: C_59  and  O_60
REMARK   27  A    between atoms: C_62  and  C_63
REMARK   28  A    between atoms: C_63  and  O_64
REMARK                            x       y       z     vdW  Elec       q    Type
REMARK                         _______ _______ _______ _____ _____    ______ ____
ROOT
ATOM      1  C   UNL     1       1.368   5.378  -1.140  0.00  0.00    +0.178 C 
ATOM      2  O   UNL     1       2.599   5.940  -0.633  0.00  0.00    -0.340 OA
ATOM      3  C   UNL     1       2.635   6.217   0.783  0.00  0.00    +0.283 C 
ATOM      4  C   UNL     1       1.491   7.202   1.127  0.00  0.00    +0.201 C 
ATOM      5  C   UNL     1       0.145   6.593   0.715  0.00  0.00    +0.179 C 
ATOM      6  C   UNL     1       0.166   6.260  -0.781  0.00  0.00    +0.177 C 
ENDROOT
BRANCH   6   7
ATOM      7  O   UNL     1      -1.077   5.702  -1.199  0.00  0.00    -0.386 OA
ATOM      8  H   UNL     1      -1.761   6.220  -0.728  0.00  0.00    +0.210 HD
ENDBRANCH   6   7
BRANCH   4   9
ATOM      9  O   UNL     1       1.611   8.447   0.401  0.00  0.00    -0.384 OA
ATOM     10  H   UNL     1       2.335   8.326  -0.246  0.00  0.00    +0.210 HD
ENDBRANCH   4   9
BRANCH   5  11
ATOM     11  O   UNL     1      -0.922   7.532   0.945  0.00  0.00    -0.386 OA
ATOM     12  H   UNL     1      -0.535   8.414   0.764  0.00  0.00    +0.210 HD
ENDBRANCH   5  11
BRANCH   3  13
ATOM     13  O   UNL     1       3.978   6.681   1.089  0.00  0.00    -0.334 OA
BRANCH  13  14
ATOM     14  C   UNL     1       4.196   7.407   2.248  0.00  0.00    +0.158 C 
ATOM     15  C   UNL     1       4.547   6.883   3.448  0.00  0.00    +0.214 C 
ATOM     16  O   UNL     1       4.717   7.679   4.578  0.00  0.00    -0.473 OA
ATOM     17  C   UNL     1       4.801   9.039   4.468  0.00  0.00    +0.132 A 
ATOM     18  C   UNL     1       4.979   9.723   5.674  0.00  0.00    +0.091 A 
ATOM     19  C   UNL     1       5.053  11.105   5.663  0.00  0.00    +0.124 A 
ATOM     20  C   UNL     1       5.004  11.793   4.463  0.00  0.00    +0.091 A 
ATOM     21  C   UNL     1       4.929  11.092   3.252  0.00  0.00    +0.134 A 
ATOM     22  C   UNL     1       4.733   9.704   3.244  0.00  0.00    +0.039 A 
ATOM     23  C   UNL     1       4.347   8.912   2.022  0.00  0.00    +0.085 C 
BRANCH  15  24
ATOM     24  C   UNL     1       4.902   5.478   3.780  0.00  0.00    +0.003 A 
ATOM     25  C   UNL     1       6.040   5.270   4.593  0.00  0.00    +0.011 A 
ATOM     26  C   UNL     1       6.406   3.999   5.043  0.00  0.00    +0.046 A 
ATOM     27  C   UNL     1       5.648   2.904   4.669  0.00  0.00    +0.117 A 
ATOM     28  C   UNL     1       4.540   3.068   3.850  0.00  0.00    +0.046 A 
ATOM     29  C   UNL     1       4.162   4.351   3.427  0.00  0.00    +0.011 A 
BRANCH  27  30
ATOM     30  O   UNL     1       6.010   1.679   5.141  0.00  0.00    -0.507 OA
ATOM     31  H   UNL     1       5.347   1.032   4.850  0.00  0.00    +0.292 HD
ENDBRANCH  27  30
ENDBRANCH  15  24
BRANCH  19  32
ATOM     32  O   UNL     1       5.202  11.827   6.808  0.00  0.00    -0.507 OA
ATOM     33  H   UNL     1       5.248  11.213   7.560  0.00  0.00    +0.292 HD
ENDBRANCH  19  32
BRANCH  21  34
ATOM     34  O   UNL     1       4.990  11.882   2.141  0.00  0.00    -0.460 OA
BRANCH  34  35
ATOM     35  C   UNL     1       6.184  11.784   1.332  0.00  0.00    +0.339 C 
ATOM     36  O   UNL     1       7.374  11.240   1.942  0.00  0.00    -0.331 OA
ATOM     37  C   UNL     1       8.028  12.087   2.911  0.00  0.00    +0.179 C 
ATOM     38  C   UNL     1       8.376  13.461   2.334  0.00  0.00    +0.177 C 
ATOM     39  C   UNL     1       7.124  14.099   1.725  0.00  0.00    +0.180 C 
ATOM     40  C   UNL     1       6.496  13.160   0.691  0.00  0.00    +0.214 C 
BRANCH  40  41
ATOM     41  O   UNL     1       5.346  13.781   0.104  0.00  0.00    -0.383 OA
ATOM     42  H   UNL     1       5.572  14.731   0.028  0.00  0.00    +0.210 HD
ENDBRANCH  40  41
BRANCH  38  43
ATOM     43  O   UNL     1       9.384  13.382   1.311  0.00  0.00    -0.386 OA
ATOM     44  H   UNL     1       9.294  12.525   0.853  0.00  0.00    +0.210 HD
ENDBRANCH  38  43
BRANCH  39  45
ATOM     45  O   UNL     1       7.471  15.334   1.072  0.00  0.00    -0.386 OA
ATOM     46  H   UNL     1       8.404  15.238   0.788  0.00  0.00    +0.210 HD
ENDBRANCH  39  45
BRANCH  37  47
ATOM     47  C   UNL     1       9.272  11.335   3.401  0.00  0.00    +0.190 C 
BRANCH  47  48
ATOM     48  O   UNL     1       8.879  10.119   4.038  0.00  0.00    -0.392 OA
ATOM     49  H   UNL     1       8.218   9.706   3.449  0.00  0.00    +0.210 HD
ENDBRANCH  47  48
ENDBRANCH  37  47
ENDBRANCH  34  35
ENDBRANCH  21  34
ENDBRANCH  13  14
ENDBRANCH   3  13
BRANCH   1  50
ATOM     50  C   UNL     1       1.220   3.862  -0.861  0.00  0.00    +0.197 C 
BRANCH  50  51
ATOM     51  O   UNL     1       0.717   3.554   0.444  0.00  0.00    -0.346 OA
BRANCH  51  55
ATOM     52  C   UNL     1      -2.014   1.506   1.795  0.00  0.00    +0.233 C 
ATOM     53  C   UNL     1      -0.920   2.209   2.614  0.00  0.00    +0.191 C 
ATOM     54  C   UNL     1       0.475   1.804   2.146  0.00  0.00    +0.202 C 
ATOM     55  C   UNL     1       0.644   2.129   0.655  0.00  0.00    +0.282 C 
ATOM     56  O   UNL     1      -0.376   1.494  -0.116  0.00  0.00    -0.342 OA
ATOM     57  C   UNL     1      -1.742   1.703   0.286  0.00  0.00    +0.161 C 
ATOM     58  C   UNL     1      -2.249   3.056  -0.193  0.00  0.00    +0.042 C 
BRANCH  54  59
ATOM     59  O   UNL     1       1.463   2.469   2.946  0.00  0.00    -0.384 OA
ATOM     60  H   UNL     1       1.028   2.658   3.801  0.00  0.00    +0.210 HD
ENDBRANCH  54  59
BRANCH  53  61
ATOM     61  O   UNL     1      -1.034   1.894   4.016  0.00  0.00    -0.385 OA
ATOM     62  H   UNL     1      -1.250   0.942   4.064  0.00  0.00    +0.210 HD
ENDBRANCH  53  61
BRANCH  52  63
ATOM     63  O   UNL     1      -1.976   0.110   2.152  0.00  0.00    -0.480 OA
BRANCH  63  65
ATOM     64  C   UNL     1      -4.310  -0.409   1.371  0.00  0.00    +0.162 A 
ATOM     65  C   UNL     1      -3.082  -0.691   2.000  0.00  0.00    +0.163 A 
ATOM     66  C   UNL     1      -2.873  -1.973   2.535  0.00  0.00    +0.050 A 
ATOM     67  C   UNL     1      -3.841  -2.974   2.429  0.00  0.00    +0.012 A 
ATOM     68  C   UNL     1      -5.045  -2.706   1.783  0.00  0.00    -0.021 A 
ATOM     69  C   UNL     1      -5.281  -1.423   1.277  0.00  0.00    +0.057 A 
BRANCH  64  71
ATOM     70  C   UNL     1      -5.603   1.034  -0.039  0.00  0.00    +0.277 C 
ATOM     71  O   UNL     1      -4.522   0.847   0.869  0.00  0.00    -0.491 OA
ENDBRANCH  64  71
BRANCH  68  72
ATOM     72  C   UNL     1      -6.026  -3.769   1.561  0.00  0.00    +0.015 C 
ATOM     73  C   UNL     1      -5.897  -4.574   0.495  0.00  0.00    +0.092 C 
BRANCH  73  74
ATOM     74  C   UNL     1      -6.792  -5.697   0.170  0.00  0.00    +0.330 C 
ATOM     75  O   UNL     1      -6.394  -6.689  -0.422  0.00  0.00    -0.246 OA
BRANCH  74  76
ATOM     76  O   UNL     1      -8.075  -5.510   0.525  0.00  0.00    -0.478 OA
ATOM     77  H   UNL     1      -8.278  -4.610   0.835  0.00  0.00    +0.295 HD
ENDBRANCH  74  76
ENDBRANCH  73  74
ENDBRANCH  68  72
ENDBRANCH  63  65
ENDBRANCH  52  63
ENDBRANCH  51  55
ENDBRANCH  50  51
ENDBRANCH   1  50
TORSDOF 26
