REMARK  Name = opt49.xyz
REMARK  30 active torsions:
REMARK  status: ('A' for Active; 'I' for Inactive)
REMARK    1  A    between atoms: C_1  and  O_2
REMARK    2  A    between atoms: O_2  and  C_3
REMARK    3  A    between atoms: C_5  and  C_12
REMARK    4  A    between atoms: C_7  and  O_10
REMARK    5  A    between atoms: C_8  and  O_9
REMARK    6  A    between atoms: O_10  and  C_11
REMARK    7  A    between atoms: C_13  and  O_35
REMARK    8  A    between atoms: C_16  and  O_17
REMARK    9  A    between atoms: O_17  and  C_18
REMARK   10  A    between atoms: C_20  and  C_21
REMARK   11  A    between atoms: C_21  and  O_22
REMARK   12  A    between atoms: C_23  and  O_24
REMARK   13  A    between atoms: C_25  and  O_26
REMARK   14  A    between atoms: C_27  and  O_28
REMARK   15  A    between atoms: C_30  and  O_31
REMARK   16  A    between atoms: O_35  and  C_36
REMARK   17  A    between atoms: C_38  and  C_39
REMARK   18  A    between atoms: C_39  and  O_40
REMARK   19  A    between atoms: O_40  and  C_41
REMARK   20  A    between atoms: C_43  and  C_44
REMARK   21  A    between atoms: C_45  and  O_46
REMARK   22  A    between atoms: O_46  and  C_47
REMARK   23  A    between atoms: C_50  and  C_51
REMARK   24  A    between atoms: C_52  and  C_53
REMARK   25  A    between atoms: C_53  and  O_54
REMARK   26  A    between atoms: C_58  and  O_59
REMARK   27  A    between atoms: C_60  and  O_61
REMARK   28  A    between atoms: C_62  and  O_63
REMARK   29  A    between atoms: C_64  and  O_65
REMARK   30  A    between atoms: C_66  and  O_67
REMARK                            x       y       z     vdW  Elec       q    Type
REMARK                         _______ _______ _______ _____ _____    ______ ____
ROOT
ATOM      1  C   UNL     1       0.765   6.329  -1.230  0.00  0.00    +0.173 C 
ATOM      2  O   UNL     1       0.768   5.052  -0.695  0.00  0.00    -0.452 OA
ATOM      3  C   UNL     1       1.826   4.222  -0.968  0.00  0.00    +0.139 A 
ATOM      4  C   UNL     1       1.756   2.924  -0.465  0.00  0.00    +0.092 A 
ATOM      5  C   UNL     1       2.803   2.041  -0.701  0.00  0.00    +0.124 A 
ATOM      6  C   UNL     1       3.919   2.430  -1.437  0.00  0.00    +0.091 A 
ATOM      7  C   UNL     1       3.963   3.718  -1.969  0.00  0.00    +0.135 A 
ATOM      8  C   UNL     1       2.931   4.635  -1.713  0.00  0.00    +0.044 A 
ATOM      9  C   UNL     1       3.006   6.046  -2.225  0.00  0.00    +0.120 C 
ATOM     10  C   UNL     1       1.776   6.866  -1.942  0.00  0.00    +0.148 C 
ENDROOT
BRANCH   1  15
ATOM     11  C   UNL     1      -2.803   7.362  -1.793  0.00  0.00    +0.166 A 
ATOM     12  C   UNL     1      -3.006   8.204  -0.694  0.00  0.00    +0.201 A 
ATOM     13  C   UNL     1      -1.987   8.464   0.239  0.00  0.00    +0.166 A 
ATOM     14  C   UNL     1      -0.737   7.868   0.067  0.00  0.00    +0.061 A 
ATOM     15  C   UNL     1      -0.518   7.020  -1.028  0.00  0.00    +0.028 A 
ATOM     16  C   UNL     1      -1.548   6.777  -1.953  0.00  0.00    +0.061 A 
BRANCH  12  17
ATOM     17  O   UNL     1      -4.237   8.786  -0.507  0.00  0.00    -0.501 OA
ATOM     18  H   UNL     1      -4.161   9.292   0.323  0.00  0.00    +0.292 HD
ENDBRANCH  12  17
BRANCH  11  20
ATOM     19  C   UNL     1      -3.702   6.252  -3.699  0.00  0.00    +0.277 C 
ATOM     20  O   UNL     1      -3.869   7.175  -2.632  0.00  0.00    -0.491 OA
ENDBRANCH  11  20
BRANCH  13  21
ATOM     21  O   UNL     1      -2.350   9.308   1.260  0.00  0.00    -0.491 OA
ATOM     22  C   UNL     1      -1.383   9.544   2.275  0.00  0.00    +0.277 C 
ENDBRANCH  13  21
ENDBRANCH   1  15
BRANCH   5  23
ATOM     23  O   UNL     1       2.700   0.788  -0.171  0.00  0.00    -0.507 OA
ATOM     24  H   UNL     1       3.499   0.280  -0.389  0.00  0.00    +0.292 HD
ENDBRANCH   5  23
BRANCH  10  25
ATOM     25  O   UNL     1       1.661   8.153  -2.439  0.00  0.00    -0.461 OA
BRANCH  25  26
ATOM     26  C   UNL     1       2.673   8.731  -3.273  0.00  0.00    +0.339 C 
ATOM     27  O   UNL     1       3.230   9.903  -2.645  0.00  0.00    -0.331 OA
ATOM     28  C   UNL     1       2.227  10.893  -2.351  0.00  0.00    +0.179 C 
ATOM     29  C   UNL     1       1.581  11.389  -3.657  0.00  0.00    +0.177 C 
ATOM     30  C   UNL     1       1.015  10.205  -4.455  0.00  0.00    +0.180 C 
ATOM     31  C   UNL     1       2.079   9.117  -4.640  0.00  0.00    +0.214 C 
BRANCH  31  32
ATOM     32  O   UNL     1       1.526   7.992  -5.332  0.00  0.00    -0.383 OA
ATOM     33  H   UNL     1       0.934   8.374  -6.012  0.00  0.00    +0.210 HD
ENDBRANCH  31  32
BRANCH  29  34
ATOM     34  O   UNL     1       2.543  12.055  -4.501  0.00  0.00    -0.386 OA
ATOM     35  H   UNL     1       3.418  11.656  -4.334  0.00  0.00    +0.210 HD
ENDBRANCH  29  34
BRANCH  30  36
ATOM     36  O   UNL     1       0.590  10.639  -5.759  0.00  0.00    -0.386 OA
ATOM     37  H   UNL     1       1.133  11.429  -5.966  0.00  0.00    +0.210 HD
ENDBRANCH  30  36
BRANCH  28  38
ATOM     38  C   UNL     1       2.893  12.024  -1.558  0.00  0.00    +0.197 C 
BRANCH  38  39
ATOM     39  O   UNL     1       1.886  12.916  -1.082  0.00  0.00    -0.346 OA
BRANCH  39  40
ATOM     40  C   UNL     1       2.427  13.921  -0.211  0.00  0.00    +0.282 C 
ATOM     41  O   UNL     1       2.938  13.348   0.991  0.00  0.00    -0.342 OA
ATOM     42  C   UNL     1       1.941  12.675   1.776  0.00  0.00    +0.161 C 
ATOM     43  C   UNL     1       2.653  12.095   2.994  0.00  0.00    +0.042 C 
ATOM     44  C   UNL     1       0.775  13.611   2.168  0.00  0.00    +0.233 C 
ATOM     45  C   UNL     1       0.198  14.244   0.889  0.00  0.00    +0.191 C 
ATOM     46  C   UNL     1       1.315  14.944   0.094  0.00  0.00    +0.202 C 
BRANCH  46  47
ATOM     47  O   UNL     1       0.792  15.509  -1.116  0.00  0.00    -0.384 OA
ATOM     48  H   UNL     1       0.484  14.761  -1.662  0.00  0.00    +0.210 HD
ENDBRANCH  46  47
BRANCH  45  49
ATOM     49  O   UNL     1      -0.873  15.146   1.192  0.00  0.00    -0.385 OA
ATOM     50  H   UNL     1      -0.471  15.999   1.444  0.00  0.00    +0.210 HD
ENDBRANCH  45  49
BRANCH  44  51
ATOM     51  O   UNL     1       1.296  14.643   3.026  0.00  0.00    -0.484 OA
BRANCH  51  52
ATOM     52  C   UNL     1       0.548  15.077   4.082  0.00  0.00    +0.121 A 
ATOM     53  C   UNL     1       1.239  15.883   4.988  0.00  0.00    +0.046 A 
ATOM     54  C   UNL     1       0.594  16.421   6.107  0.00  0.00    +0.011 A 
ATOM     55  C   UNL     1      -0.759  16.153   6.340  0.00  0.00    -0.025 A 
ATOM     56  C   UNL     1      -1.453  15.364   5.416  0.00  0.00    +0.011 A 
ATOM     57  C   UNL     1      -0.805  14.828   4.296  0.00  0.00    +0.046 A 
BRANCH  55  58
ATOM     58  C   UNL     1      -1.496  16.723   7.476  0.00  0.00    +0.015 C 
ATOM     59  C   UNL     1      -0.962  16.908   8.694  0.00  0.00    +0.092 C 
BRANCH  59  60
ATOM     60  C   UNL     1      -1.702  17.507   9.818  0.00  0.00    +0.330 C 
ATOM     61  O   UNL     1      -1.163  18.231  10.637  0.00  0.00    -0.246 OA
BRANCH  60  62
ATOM     62  O   UNL     1      -2.994  17.136   9.885  0.00  0.00    -0.478 OA
ATOM     63  H   UNL     1      -3.234  16.419   9.270  0.00  0.00    +0.295 HD
ENDBRANCH  60  62
ENDBRANCH  59  60
ENDBRANCH  55  58
ENDBRANCH  51  52
ENDBRANCH  44  51
ENDBRANCH  39  40
ENDBRANCH  38  39
ENDBRANCH  28  38
ENDBRANCH  25  26
ENDBRANCH  10  25
BRANCH   7  64
ATOM     64  O   UNL     1       5.069   4.182  -2.618  0.00  0.00    -0.460 OA
BRANCH  64  65
ATOM     65  C   UNL     1       5.418   3.559  -3.873  0.00  0.00    +0.339 C 
ATOM     66  C   UNL     1       6.817   2.887  -3.771  0.00  0.00    +0.214 C 
ATOM     67  C   UNL     1       6.851   1.414  -4.179  0.00  0.00    +0.180 C 
ATOM     68  C   UNL     1       5.845   1.108  -5.281  0.00  0.00    +0.177 C 
ATOM     69  C   UNL     1       4.456   1.502  -4.776  0.00  0.00    +0.179 C 
ATOM     70  O   UNL     1       4.376   2.920  -4.617  0.00  0.00    -0.331 OA
BRANCH  68  71
ATOM     71  O   UNL     1       6.217   1.843  -6.462  0.00  0.00    -0.386 OA
ATOM     72  H   UNL     1       5.574   2.567  -6.587  0.00  0.00    +0.210 HD
ENDBRANCH  68  71
BRANCH  67  73
ATOM     73  O   UNL     1       8.165   1.057  -4.636  0.00  0.00    -0.386 OA
ATOM     74  H   UNL     1       8.228   1.366  -5.561  0.00  0.00    +0.210 HD
ENDBRANCH  67  73
BRANCH  66  75
ATOM     75  O   UNL     1       7.376   3.017  -2.449  0.00  0.00    -0.383 OA
ATOM     76  H   UNL     1       6.994   3.822  -2.050  0.00  0.00    +0.210 HD
ENDBRANCH  66  75
BRANCH  69  77
ATOM     77  C   UNL     1       3.354   1.070  -5.755  0.00  0.00    +0.190 C 
BRANCH  77  78
ATOM     78  O   UNL     1       3.403  -0.327  -6.014  0.00  0.00    -0.392 OA
ATOM     79  H   UNL     1       3.906  -0.458  -6.838  0.00  0.00    +0.210 HD
ENDBRANCH  77  78
ENDBRANCH  69  77
ENDBRANCH  64  65
ENDBRANCH   7  64
TORSDOF 27
