REMARK  Name = opt48.xyz
REMARK  31 active torsions:
REMARK  status: ('A' for Active; 'I' for Inactive)
REMARK    1  A    between atoms: C_1  and  O_2
REMARK    2  A    between atoms: O_2  and  C_3
REMARK    3  A    between atoms: C_5  and  C_11
REMARK    4  A    between atoms: C_7  and  O_10
REMARK    5  A    between atoms: C_8  and  O_9
REMARK    6  A    between atoms: C_12  and  O_34
REMARK    7  A    between atoms: C_15  and  O_16
REMARK    8  A    between atoms: O_16  and  C_17
REMARK    9  A    between atoms: C_19  and  C_20
REMARK   10  A    between atoms: C_20  and  O_21
REMARK   11  A    between atoms: C_22  and  O_23
REMARK   12  A    between atoms: C_24  and  O_25
REMARK   13  A    between atoms: C_26  and  O_27
REMARK   14  A    between atoms: C_29  and  O_30
REMARK   15  A    between atoms: O_34  and  C_35
REMARK   16  A    between atoms: C_37  and  C_38
REMARK   17  A    between atoms: C_38  and  O_39
REMARK   18  A    between atoms: O_39  and  C_40
REMARK   19  A    between atoms: C_42  and  C_43
REMARK   20  A    between atoms: C_44  and  O_45
REMARK   21  A    between atoms: O_45  and  C_46
REMARK   22  A    between atoms: C_49  and  C_50
REMARK   23  A    between atoms: C_51  and  C_52
REMARK   24  A    between atoms: C_52  and  O_53
REMARK   25  A    between atoms: C_56  and  O_57
REMARK   26  A    between atoms: O_57  and  C_58
REMARK   27  A    between atoms: C_59  and  O_60
REMARK   28  A    between atoms: C_61  and  O_62
REMARK   29  A    between atoms: C_63  and  O_64
REMARK   30  A    between atoms: C_65  and  O_66
REMARK   31  A    between atoms: C_67  and  O_68
REMARK                            x       y       z     vdW  Elec       q    Type
REMARK                         _______ _______ _______ _____ _____    ______ ____
ROOT
ATOM      1  O   UNL     1       1.899   4.881   2.129  0.00  0.00    -0.461 OA
ENDROOT
BRANCH   1   3
ATOM      2  C   UNL     1       0.924   6.212   0.379  0.00  0.00    +0.173 C 
ATOM      3  C   UNL     1       2.000   5.796   1.075  0.00  0.00    +0.148 C 
ATOM      4  C   UNL     1       3.375   6.313   0.739  0.00  0.00    +0.120 C 
ATOM      5  C   UNL     1       3.462   7.074  -0.552  0.00  0.00    +0.044 A 
ATOM      6  C   UNL     1       2.255   7.429  -1.183  0.00  0.00    +0.139 A 
ATOM      7  C   UNL     1       2.243   8.094  -2.409  0.00  0.00    +0.092 A 
ATOM      8  C   UNL     1       3.441   8.380  -3.039  0.00  0.00    +0.124 A 
ATOM      9  C   UNL     1       4.647   8.022  -2.450  0.00  0.00    +0.091 A 
ATOM     10  C   UNL     1       4.674   7.386  -1.197  0.00  0.00    +0.135 A 
ATOM     11  O   UNL     1       1.014   7.105  -0.679  0.00  0.00    -0.452 OA
BRANCH   2  14
ATOM     12  C   UNL     1      -2.213   4.961   2.139  0.00  0.00    +0.166 A 
ATOM     13  C   UNL     1      -0.956   5.534   1.915  0.00  0.00    +0.061 A 
ATOM     14  C   UNL     1      -0.444   5.697   0.613  0.00  0.00    +0.028 A 
ATOM     15  C   UNL     1      -1.244   5.326  -0.478  0.00  0.00    +0.061 A 
ATOM     16  C   UNL     1      -2.497   4.772  -0.257  0.00  0.00    +0.163 A 
ATOM     17  C   UNL     1      -2.987   4.604   1.036  0.00  0.00    +0.201 A 
BRANCH  17  18
ATOM     18  O   UNL     1      -4.245   4.084   1.196  0.00  0.00    -0.501 OA
ATOM     19  H   UNL     1      -4.829   4.661   0.672  0.00  0.00    +0.292 HD
ENDBRANCH  17  18
BRANCH  12  21
ATOM     20  C   UNL     1      -1.832   4.649   4.453  0.00  0.00    +0.277 C 
ATOM     21  O   UNL     1      -2.760   4.755   3.378  0.00  0.00    -0.491 OA
ENDBRANCH  12  21
BRANCH  16  22
ATOM     22  O   UNL     1      -3.227   4.344  -1.331  0.00  0.00    -0.503 OA
ATOM     23  H   UNL     1      -3.774   3.607  -0.997  0.00  0.00    +0.292 HD
ENDBRANCH  16  22
ENDBRANCH   2  14
BRANCH   8  24
ATOM     24  O   UNL     1       3.396   8.996  -4.254  0.00  0.00    -0.507 OA
ATOM     25  H   UNL     1       4.299   9.080  -4.601  0.00  0.00    +0.292 HD
ENDBRANCH   8  24
BRANCH  10  26
ATOM     26  O   UNL     1       5.946   7.035  -0.837  0.00  0.00    -0.460 OA
BRANCH  26  27
ATOM     27  C   UNL     1       6.394   7.102   0.520  0.00  0.00    +0.339 C 
ATOM     28  O   UNL     1       6.202   8.375   1.148  0.00  0.00    -0.331 OA
ATOM     29  C   UNL     1       6.896   9.457   0.499  0.00  0.00    +0.179 C 
ATOM     30  C   UNL     1       8.413   9.196   0.430  0.00  0.00    +0.177 C 
ATOM     31  C   UNL     1       8.706   7.813  -0.161  0.00  0.00    +0.180 C 
ATOM     32  C   UNL     1       7.895   6.736   0.563  0.00  0.00    +0.214 C 
BRANCH  32  33
ATOM     33  O   UNL     1       8.183   5.454  -0.018  0.00  0.00    -0.383 OA
ATOM     34  H   UNL     1       9.162   5.454  -0.117  0.00  0.00    +0.210 HD
ENDBRANCH  32  33
BRANCH  31  35
ATOM     35  O   UNL     1      10.100   7.484  -0.033  0.00  0.00    -0.386 OA
ATOM     36  H   UNL     1      10.480   8.123   0.604  0.00  0.00    +0.210 HD
ENDBRANCH  31  35
BRANCH  30  37
ATOM     37  O   UNL     1       9.025   9.267   1.732  0.00  0.00    -0.386 OA
ATOM     38  H   UNL     1       8.429   8.837   2.375  0.00  0.00    +0.210 HD
ENDBRANCH  30  37
BRANCH  29  39
ATOM     39  C   UNL     1       6.567  10.740   1.274  0.00  0.00    +0.190 C 
BRANCH  39  40
ATOM     40  O   UNL     1       7.302  11.855   0.792  0.00  0.00    -0.392 OA
ATOM     41  H   UNL     1       8.168  11.844   1.241  0.00  0.00    +0.210 HD
ENDBRANCH  39  40
ENDBRANCH  29  39
ENDBRANCH  26  27
ENDBRANCH  10  26
ENDBRANCH   1   3
BRANCH   1  42
ATOM     42  C   UNL     1       2.461   3.616   1.757  0.00  0.00    +0.339 C 
ATOM     43  C   UNL     1       1.914   2.443   2.599  0.00  0.00    +0.214 C 
ATOM     44  C   UNL     1       2.678   1.148   2.227  0.00  0.00    +0.180 C 
ATOM     45  C   UNL     1       4.211   1.335   2.184  0.00  0.00    +0.177 C 
ATOM     46  C   UNL     1       4.515   2.566   1.329  0.00  0.00    +0.179 C 
ATOM     47  O   UNL     1       3.880   3.676   1.971  0.00  0.00    -0.331 OA
BRANCH  45  48
ATOM     48  O   UNL     1       4.683   1.497   3.529  0.00  0.00    -0.386 OA
ATOM     49  H   UNL     1       4.565   2.437   3.768  0.00  0.00    +0.210 HD
ENDBRANCH  45  48
BRANCH  44  50
ATOM     50  O   UNL     1       2.325   0.112   3.155  0.00  0.00    -0.386 OA
ATOM     51  H   UNL     1       3.045   0.085   3.819  0.00  0.00    +0.210 HD
ENDBRANCH  44  50
BRANCH  43  52
ATOM     52  O   UNL     1       0.517   2.229   2.367  0.00  0.00    -0.383 OA
ATOM     53  H   UNL     1       0.304   1.362   2.766  0.00  0.00    +0.210 HD
ENDBRANCH  43  52
BRANCH  46  54
ATOM     54  C   UNL     1       5.993   2.928   1.140  0.00  0.00    +0.197 C 
BRANCH  54  55
ATOM     55  O   UNL     1       6.538   2.596  -0.141  0.00  0.00    -0.346 OA
BRANCH  55  56
ATOM     56  C   UNL     1       5.859   3.159  -1.277  0.00  0.00    +0.282 C 
ATOM     57  O   UNL     1       4.732   2.358  -1.632  0.00  0.00    -0.342 OA
ATOM     58  C   UNL     1       5.085   0.980  -1.839  0.00  0.00    +0.161 C 
ATOM     59  C   UNL     1       3.784   0.232  -2.117  0.00  0.00    +0.042 C 
ATOM     60  C   UNL     1       6.142   0.800  -2.949  0.00  0.00    +0.233 C 
ATOM     61  C   UNL     1       7.312   1.787  -2.758  0.00  0.00    +0.191 C 
ATOM     62  C   UNL     1       6.806   3.208  -2.492  0.00  0.00    +0.202 C 
BRANCH  62  63
ATOM     63  O   UNL     1       7.944   4.064  -2.308  0.00  0.00    -0.384 OA
ATOM     64  H   UNL     1       7.867   4.469  -1.417  0.00  0.00    +0.210 HD
ENDBRANCH  62  63
BRANCH  61  65
ATOM     65  O   UNL     1       8.219   1.784  -3.870  0.00  0.00    -0.385 OA
ATOM     66  H   UNL     1       8.652   2.662  -3.848  0.00  0.00    +0.210 HD
ENDBRANCH  61  65
BRANCH  60  67
ATOM     67  O   UNL     1       5.489   1.016  -4.208  0.00  0.00    -0.480 OA
BRANCH  67  68
ATOM     68  C   UNL     1       5.937   0.327  -5.306  0.00  0.00    +0.163 A 
ATOM     69  C   UNL     1       6.622  -0.890  -5.251  0.00  0.00    +0.050 A 
ATOM     70  C   UNL     1       7.074  -1.500  -6.418  0.00  0.00    +0.012 A 
ATOM     71  C   UNL     1       6.834  -0.908  -7.657  0.00  0.00    -0.021 A 
ATOM     72  C   UNL     1       6.102   0.283  -7.728  0.00  0.00    +0.057 A 
ATOM     73  C   UNL     1       5.640   0.899  -6.558  0.00  0.00    +0.162 A 
BRANCH  73  74
ATOM     74  O   UNL     1       4.934   2.077  -6.532  0.00  0.00    -0.491 OA
ATOM     75  C   UNL     1       4.316   2.487  -7.743  0.00  0.00    +0.277 C 
ENDBRANCH  73  74
BRANCH  71  76
ATOM     76  C   UNL     1       7.374  -1.526  -8.865  0.00  0.00    +0.015 C 
ATOM     77  C   UNL     1       8.690  -1.468  -9.118  0.00  0.00    +0.092 C 
BRANCH  77  78
ATOM     78  C   UNL     1       9.309  -2.069 -10.310  0.00  0.00    +0.330 C 
ATOM     79  O   UNL     1      10.241  -1.548 -10.896  0.00  0.00    -0.246 OA
BRANCH  78  80
ATOM     80  O   UNL     1       8.792  -3.268 -10.640  0.00  0.00    -0.478 OA
ATOM     81  H   UNL     1       8.172  -3.625  -9.978  0.00  0.00    +0.295 HD
ENDBRANCH  78  80
ENDBRANCH  77  78
ENDBRANCH  71  76
ENDBRANCH  67  68
ENDBRANCH  60  67
ENDBRANCH  55  56
ENDBRANCH  54  55
ENDBRANCH  46  54
ENDBRANCH   1  42
TORSDOF 28
