REMARK  Name = opt46.xyz
REMARK  28 active torsions:
REMARK  status: ('A' for Active; 'I' for Inactive)
REMARK    1  A    between atoms: C_1  and  O_2
REMARK    2  A    between atoms: O_2  and  C_3
REMARK    3  A    between atoms: C_5  and  C_10
REMARK    4  A    between atoms: C_8  and  O_9
REMARK    5  A    between atoms: C_11  and  O_33
REMARK    6  A    between atoms: C_14  and  O_15
REMARK    7  A    between atoms: O_15  and  C_16
REMARK    8  A    between atoms: C_18  and  C_19
REMARK    9  A    between atoms: C_19  and  O_20
REMARK   10  A    between atoms: C_21  and  O_22
REMARK   11  A    between atoms: C_23  and  O_24
REMARK   12  A    between atoms: C_25  and  O_26
REMARK   13  A    between atoms: C_28  and  O_29
REMARK   14  A    between atoms: O_33  and  C_34
REMARK   15  A    between atoms: C_36  and  C_37
REMARK   16  A    between atoms: C_37  and  O_38
REMARK   17  A    between atoms: O_38  and  C_39
REMARK   18  A    between atoms: C_41  and  C_42
REMARK   19  A    between atoms: C_43  and  O_44
REMARK   20  A    between atoms: O_44  and  C_45
REMARK   21  A    between atoms: C_48  and  C_49
REMARK   22  A    between atoms: C_50  and  C_51
REMARK   23  A    between atoms: C_51  and  O_52
REMARK   24  A    between atoms: C_56  and  O_57
REMARK   25  A    between atoms: C_58  and  O_59
REMARK   26  A    between atoms: C_60  and  O_61
REMARK   27  A    between atoms: C_62  and  O_63
REMARK   28  A    between atoms: C_64  and  O_65
REMARK                            x       y       z     vdW  Elec       q    Type
REMARK                         _______ _______ _______ _____ _____    ______ ____
ROOT
ATOM      1  O   UNL     1       1.763   8.368  -2.326  0.00  0.00    -0.461 OA
ENDROOT
BRANCH   1  11
ATOM      2  C   UNL     1       1.115   6.735  -0.753  0.00  0.00    +0.173 C 
ATOM      3  O   UNL     1       1.304   5.636   0.066  0.00  0.00    -0.452 OA
ATOM      4  C   UNL     1       2.420   4.861  -0.123  0.00  0.00    +0.139 A 
ATOM      5  C   UNL     1       2.454   3.651   0.570  0.00  0.00    +0.092 A 
ATOM      6  C   UNL     1       3.527   2.790   0.388  0.00  0.00    +0.124 A 
ATOM      7  C   UNL     1       4.548   3.108  -0.499  0.00  0.00    +0.091 A 
ATOM      8  C   UNL     1       4.485   4.306  -1.224  0.00  0.00    +0.135 A 
ATOM      9  C   UNL     1       3.449   5.225  -0.999  0.00  0.00    +0.044 A 
ATOM     10  C   UNL     1       3.406   6.576  -1.667  0.00  0.00    +0.120 C 
ATOM     11  C   UNL     1       2.055   7.242  -1.576  0.00  0.00    +0.148 C 
BRANCH   2  16
ATOM     12  C   UNL     1      -2.599   7.199  -1.246  0.00  0.00    +0.162 A 
ATOM     13  C   UNL     1      -2.844   8.245  -0.345  0.00  0.00    +0.158 A 
ATOM     14  C   UNL     1      -1.810   8.819   0.396  0.00  0.00    +0.050 A 
ATOM     15  C   UNL     1      -0.508   8.340   0.249  0.00  0.00    +0.015 A 
ATOM     16  C   UNL     1      -0.242   7.292  -0.639  0.00  0.00    +0.024 A 
ATOM     17  C   UNL     1      -1.289   6.730  -1.389  0.00  0.00    +0.061 A 
BRANCH  13  18
ATOM     18  O   UNL     1      -4.127   8.701  -0.186  0.00  0.00    -0.503 OA
ATOM     19  H   UNL     1      -4.141   9.380   0.504  0.00  0.00    +0.292 HD
ENDBRANCH  13  18
BRANCH  12  21
ATOM     20  C   UNL     1      -3.488   5.602  -2.780  0.00  0.00    +0.277 C 
ATOM     21  O   UNL     1      -3.690   6.710  -1.915  0.00  0.00    -0.491 OA
ENDBRANCH  12  21
ENDBRANCH   2  16
BRANCH   6  22
ATOM     22  O   UNL     1       3.525   1.618   1.084  0.00  0.00    -0.507 OA
ATOM     23  H   UNL     1       4.339   1.127   0.884  0.00  0.00    +0.292 HD
ENDBRANCH   6  22
BRANCH   8  24
ATOM     24  O   UNL     1       5.419   4.576  -2.202  0.00  0.00    -0.460 OA
BRANCH  24  25
ATOM     25  C   UNL     1       5.375   3.572  -3.238  0.00  0.00    +0.339 C 
ATOM     26  O   UNL     1       6.399   2.581  -3.054  0.00  0.00    -0.331 OA
ATOM     27  C   UNL     1       7.728   3.097  -3.261  0.00  0.00    +0.179 C 
ATOM     28  C   UNL     1       7.861   3.518  -4.727  0.00  0.00    +0.177 C 
ATOM     29  C   UNL     1       6.846   4.623  -5.044  0.00  0.00    +0.180 C 
ATOM     30  C   UNL     1       5.423   4.201  -4.655  0.00  0.00    +0.214 C 
BRANCH  30  31
ATOM     31  O   UNL     1       4.526   5.312  -4.783  0.00  0.00    -0.383 OA
ATOM     32  H   UNL     1       3.617   4.979  -4.691  0.00  0.00    +0.210 HD
ENDBRANCH  30  31
BRANCH  28  33
ATOM     33  O   UNL     1       7.604   2.395  -5.598  0.00  0.00    -0.386 OA
ATOM     34  H   UNL     1       6.972   1.806  -5.142  0.00  0.00    +0.210 HD
ENDBRANCH  28  33
BRANCH  29  35
ATOM     35  O   UNL     1       6.905   4.898  -6.456  0.00  0.00    -0.386 OA
ATOM     36  H   UNL     1       7.028   4.034  -6.898  0.00  0.00    +0.210 HD
ENDBRANCH  29  35
BRANCH  27  37
ATOM     37  C   UNL     1       8.721   1.991  -2.875  0.00  0.00    +0.190 C 
BRANCH  37  38
ATOM     38  O   UNL     1      10.047   2.281  -3.294  0.00  0.00    -0.392 OA
ATOM     39  H   UNL     1      10.131   1.978  -4.218  0.00  0.00    +0.210 HD
ENDBRANCH  37  38
ENDBRANCH  27  37
ENDBRANCH  24  25
ENDBRANCH   8  24
ENDBRANCH   1  11
BRANCH   1  40
ATOM     40  C   UNL     1       2.642   8.816  -3.365  0.00  0.00    +0.339 C 
ATOM     41  O   UNL     1       3.640   9.722  -2.859  0.00  0.00    -0.331 OA
ATOM     42  C   UNL     1       3.064  10.884  -2.230  0.00  0.00    +0.179 C 
ATOM     43  C   UNL     1       2.216  11.680  -3.240  0.00  0.00    +0.177 C 
ATOM     44  C   UNL     1       1.158  10.775  -3.883  0.00  0.00    +0.180 C 
ATOM     45  C   UNL     1       1.809   9.514  -4.459  0.00  0.00    +0.214 C 
BRANCH  45  46
ATOM     46  O   UNL     1       0.807   8.650  -5.012  0.00  0.00    -0.383 OA
ATOM     47  H   UNL     1       0.158   9.245  -5.439  0.00  0.00    +0.210 HD
ENDBRANCH  45  46
BRANCH  43  48
ATOM     48  O   UNL     1       3.028  12.220  -4.302  0.00  0.00    -0.386 OA
ATOM     49  H   UNL     1       3.767  11.603  -4.462  0.00  0.00    +0.210 HD
ENDBRANCH  43  48
BRANCH  44  50
ATOM     50  O   UNL     1       0.494  11.471  -4.953  0.00  0.00    -0.386 OA
ATOM     51  H   UNL     1       1.149  12.111  -5.301  0.00  0.00    +0.210 HD
ENDBRANCH  44  50
BRANCH  42  52
ATOM     52  C   UNL     1       4.195  11.736  -1.636  0.00  0.00    +0.197 C 
BRANCH  52  53
ATOM     53  O   UNL     1       3.624  12.811  -0.887  0.00  0.00    -0.346 OA
BRANCH  53  54
ATOM     54  C   UNL     1       4.619  13.590  -0.205  0.00  0.00    +0.282 C 
ATOM     55  O   UNL     1       5.272  12.830   0.809  0.00  0.00    -0.342 OA
ATOM     56  C   UNL     1       4.382  12.360   1.833  0.00  0.00    +0.161 C 
ATOM     57  C   UNL     1       5.222  11.538   2.806  0.00  0.00    +0.042 C 
ATOM     58  C   UNL     1       3.627  13.514   2.535  0.00  0.00    +0.233 C 
ATOM     59  C   UNL     1       2.921  14.368   1.466  0.00  0.00    +0.191 C 
ATOM     60  C   UNL     1       3.931  14.830   0.400  0.00  0.00    +0.202 C 
BRANCH  60  61
ATOM     61  O   UNL     1       3.273  15.599  -0.616  0.00  0.00    -0.384 OA
ATOM     62  H   UNL     1       2.665  14.991  -1.077  0.00  0.00    +0.210 HD
ENDBRANCH  60  61
BRANCH  59  63
ATOM     63  O   UNL     1       2.236  15.481   2.055  0.00  0.00    -0.385 OA
ATOM     64  H   UNL     1       2.906  16.164   2.244  0.00  0.00    +0.210 HD
ENDBRANCH  59  63
BRANCH  58  65
ATOM     65  O   UNL     1       4.584  14.322   3.245  0.00  0.00    -0.484 OA
BRANCH  65  66
ATOM     66  C   UNL     1       4.248  14.835   4.466  0.00  0.00    +0.121 A 
ATOM     67  C   UNL     1       5.313  15.397   5.174  0.00  0.00    +0.046 A 
ATOM     68  C   UNL     1       5.111  15.979   6.430  0.00  0.00    +0.011 A 
ATOM     69  C   UNL     1       3.836  16.004   7.003  0.00  0.00    -0.025 A 
ATOM     70  C   UNL     1       2.768  15.462   6.280  0.00  0.00    +0.011 A 
ATOM     71  C   UNL     1       2.972  14.881   5.023  0.00  0.00    +0.046 A 
BRANCH  69  72
ATOM     72  C   UNL     1       3.561  16.633   8.301  0.00  0.00    +0.015 C 
ATOM     73  C   UNL     1       4.382  16.538   9.358  0.00  0.00    +0.092 C 
BRANCH  73  74
ATOM     74  C   UNL     1       4.113  17.186  10.654  0.00  0.00    +0.330 C 
ATOM     75  O   UNL     1       5.004  17.636  11.352  0.00  0.00    -0.246 OA
BRANCH  74  76
ATOM     76  O   UNL     1       2.815  17.178  11.013  0.00  0.00    -0.478 OA
ATOM     77  H   UNL     1       2.249  16.629  10.442  0.00  0.00    +0.295 HD
ENDBRANCH  74  76
ENDBRANCH  73  74
ENDBRANCH  69  72
ENDBRANCH  65  66
ENDBRANCH  58  65
ENDBRANCH  53  54
ENDBRANCH  52  53
ENDBRANCH  42  52
ENDBRANCH   1  40
TORSDOF 26
