REMARK  Name = opt42.xyz
REMARK  27 active torsions:
REMARK  status: ('A' for Active; 'I' for Inactive)
REMARK    1  A    between atoms: C_1  and  C_2
REMARK    2  A    between atoms: C_4  and  O_5
REMARK    3  A    between atoms: O_5  and  C_6
REMARK    4  A    between atoms: C_6  and  C_7
REMARK    5  A    between atoms: C_9  and  O_10
REMARK    6  A    between atoms: O_10  and  C_11
REMARK    7  A    between atoms: C_12  and  C_34
REMARK    8  A    between atoms: C_16  and  O_33
REMARK    9  A    between atoms: C_18  and  O_21
REMARK   10  A    between atoms: O_21  and  C_22
REMARK   11  A    between atoms: C_24  and  C_25
REMARK   12  A    between atoms: C_25  and  O_26
REMARK   13  A    between atoms: C_27  and  O_28
REMARK   14  A    between atoms: C_29  and  O_30
REMARK   15  A    between atoms: C_31  and  O_32
REMARK   16  A    between atoms: C_37  and  O_38
REMARK   17  A    between atoms: C_39  and  O_41
REMARK   18  A    between atoms: C_42  and  O_43
REMARK   19  A    between atoms: C_44  and  O_45
REMARK   20  A    between atoms: C_46  and  O_47
REMARK   21  A    between atoms: C_48  and  O_49
REMARK   22  A    between atoms: C_50  and  O_51
REMARK   23  A    between atoms: C_52  and  O_53
REMARK   24  A    between atoms: O_53  and  C_54
REMARK   25  A    between atoms: C_57  and  C_58
REMARK   26  A    between atoms: C_59  and  C_60
REMARK   27  A    between atoms: C_60  and  O_61
REMARK                            x       y       z     vdW  Elec       q    Type
REMARK                         _______ _______ _______ _____ _____    ______ ____
ROOT
ATOM      1  O   UNL     1       3.244   6.863  -2.381  0.00  0.00    -0.461 OA
ENDROOT
BRANCH   1   2
ATOM      2  C   UNL     1       3.147   6.994  -1.003  0.00  0.00    +0.148 C 
ATOM      3  C   UNL     1       4.155   7.539  -0.295  0.00  0.00    +0.173 C 
ATOM      4  O   UNL     1       4.115   7.793   1.067  0.00  0.00    -0.452 OA
ATOM      5  C   UNL     1       2.954   7.523   1.755  0.00  0.00    +0.139 A 
ATOM      6  C   UNL     1       2.948   7.792   3.122  0.00  0.00    +0.092 A 
ATOM      7  C   UNL     1       1.793   7.542   3.856  0.00  0.00    +0.124 A 
ATOM      8  C   UNL     1       0.645   7.034   3.250  0.00  0.00    +0.091 A 
ATOM      9  C   UNL     1       0.657   6.748   1.887  0.00  0.00    +0.135 A 
ATOM     10  C   UNL     1       1.816   7.002   1.133  0.00  0.00    +0.044 A 
ATOM     11  C   UNL     1       1.848   6.661  -0.328  0.00  0.00    +0.120 C 
BRANCH   3  12
ATOM     12  C   UNL     1       5.403   7.958  -0.946  0.00  0.00    +0.024 A 
ATOM     13  C   UNL     1       6.389   7.014  -1.260  0.00  0.00    +0.060 A 
ATOM     14  C   UNL     1       7.526   7.422  -1.943  0.00  0.00    +0.159 A 
ATOM     15  C   UNL     1       7.696   8.752  -2.322  0.00  0.00    +0.158 A 
ATOM     16  C   UNL     1       6.733   9.702  -2.007  0.00  0.00    +0.050 A 
ATOM     17  C   UNL     1       5.585   9.302  -1.315  0.00  0.00    +0.015 A 
BRANCH  15  18
ATOM     18  O   UNL     1       8.831   9.075  -3.013  0.00  0.00    -0.503 OA
ATOM     19  H   UNL     1       8.790  10.020  -3.237  0.00  0.00    +0.292 HD
ENDBRANCH  15  18
BRANCH  14  20
ATOM     20  O   UNL     1       8.480   6.497  -2.259  0.00  0.00    -0.503 OA
ATOM     21  H   UNL     1       9.163   7.005  -2.741  0.00  0.00    +0.292 HD
ENDBRANCH  14  20
ENDBRANCH   3  12
BRANCH   7  22
ATOM     22  O   UNL     1       1.739   7.790   5.197  0.00  0.00    -0.507 OA
ATOM     23  H   UNL     1       2.583   8.182   5.479  0.00  0.00    +0.292 HD
ENDBRANCH   7  22
BRANCH   9  24
ATOM     24  O   UNL     1      -0.409   6.282   1.170  0.00  0.00    -0.460 OA
BRANCH  24  25
ATOM     25  C   UNL     1      -1.373   5.444   1.820  0.00  0.00    +0.339 C 
ATOM     26  C   UNL     1      -2.716   6.185   1.979  0.00  0.00    +0.214 C 
ATOM     27  C   UNL     1      -3.282   6.532   0.595  0.00  0.00    +0.180 C 
ATOM     28  C   UNL     1      -3.393   5.271  -0.267  0.00  0.00    +0.177 C 
ATOM     29  C   UNL     1      -2.031   4.549  -0.313  0.00  0.00    +0.179 C 
ATOM     30  O   UNL     1      -1.563   4.254   1.021  0.00  0.00    -0.331 OA
BRANCH  28  31
ATOM     31  O   UNL     1      -4.430   4.461   0.318  0.00  0.00    -0.386 OA
ATOM     32  H   UNL     1      -4.331   3.555  -0.051  0.00  0.00    +0.210 HD
ENDBRANCH  28  31
BRANCH  27  33
ATOM     33  O   UNL     1      -4.580   7.126   0.769  0.00  0.00    -0.386 OA
ATOM     34  H   UNL     1      -5.198   6.368   0.843  0.00  0.00    +0.210 HD
ENDBRANCH  27  33
BRANCH  26  35
ATOM     35  O   UNL     1      -2.597   7.381   2.759  0.00  0.00    -0.383 OA
ATOM     36  H   UNL     1      -3.390   7.913   2.545  0.00  0.00    +0.210 HD
ENDBRANCH  26  35
BRANCH  29  37
ATOM     37  C   UNL     1      -2.099   3.220  -1.074  0.00  0.00    +0.190 C 
BRANCH  37  38
ATOM     38  O   UNL     1      -2.996   2.321  -0.422  0.00  0.00    -0.392 OA
ATOM     39  H   UNL     1      -2.617   2.182   0.471  0.00  0.00    +0.210 HD
ENDBRANCH  37  38
ENDBRANCH  29  37
ENDBRANCH  24  25
ENDBRANCH   9  24
ENDBRANCH   1   2
BRANCH   1  42
ATOM     40  C   UNL     1       3.127   3.754  -4.299  0.00  0.00    +0.179 C 
ATOM     41  O   UNL     1       3.639   4.921  -3.625  0.00  0.00    -0.331 OA
ATOM     42  C   UNL     1       2.637   5.712  -2.983  0.00  0.00    +0.339 C 
ATOM     43  C   UNL     1       1.632   6.241  -4.023  0.00  0.00    +0.214 C 
ATOM     44  C   UNL     1       1.010   5.069  -4.773  0.00  0.00    +0.180 C 
ATOM     45  C   UNL     1       2.092   4.153  -5.365  0.00  0.00    +0.177 C 
BRANCH  45  46
ATOM     46  O   UNL     1       1.464   3.006  -5.943  0.00  0.00    -0.386 OA
ATOM     47  H   UNL     1       0.752   3.360  -6.515  0.00  0.00    +0.210 HD
ENDBRANCH  45  46
BRANCH  43  48
ATOM     48  O   UNL     1       2.270   7.095  -4.998  0.00  0.00    -0.383 OA
ATOM     49  H   UNL     1       3.033   7.503  -4.539  0.00  0.00    +0.210 HD
ENDBRANCH  43  48
BRANCH  44  50
ATOM     50  O   UNL     1       0.179   5.549  -5.841  0.00  0.00    -0.386 OA
ATOM     51  H   UNL     1       0.655   6.326  -6.206  0.00  0.00    +0.210 HD
ENDBRANCH  44  50
BRANCH  40  52
ATOM     52  C   UNL     1       2.595   2.682  -3.324  0.00  0.00    +0.197 C 
BRANCH  52  53
ATOM     53  O   UNL     1       3.584   2.407  -2.328  0.00  0.00    -0.346 OA
BRANCH  53  59
ATOM     54  C   UNL     1       0.831  -0.055  -0.088  0.00  0.00    +0.042 C 
ATOM     55  C   UNL     1       1.637   1.120   0.472  0.00  0.00    +0.161 C 
ATOM     56  C   UNL     1       2.790   0.716   1.418  0.00  0.00    +0.233 C 
ATOM     57  C   UNL     1       3.962   0.124   0.615  0.00  0.00    +0.191 C 
ATOM     58  C   UNL     1       4.360   1.064  -0.521  0.00  0.00    +0.202 C 
ATOM     59  C   UNL     1       3.139   1.426  -1.385  0.00  0.00    +0.282 C 
ATOM     60  O   UNL     1       2.085   1.975  -0.591  0.00  0.00    -0.342 OA
BRANCH  58  61
ATOM     61  O   UNL     1       4.935   2.254   0.066  0.00  0.00    -0.384 OA
ATOM     62  H   UNL     1       4.923   2.920  -0.653  0.00  0.00    +0.210 HD
ENDBRANCH  58  61
BRANCH  57  63
ATOM     63  O   UNL     1       5.103  -0.071   1.467  0.00  0.00    -0.385 OA
ATOM     64  H   UNL     1       5.521   0.811   1.549  0.00  0.00    +0.210 HD
ENDBRANCH  57  63
BRANCH  56  65
ATOM     65  O   UNL     1       2.339  -0.272   2.362  0.00  0.00    -0.484 OA
BRANCH  65  66
ATOM     66  C   UNL     1       1.831   0.194   3.541  0.00  0.00    +0.121 A 
ATOM     67  C   UNL     1       2.382   1.232   4.286  0.00  0.00    +0.046 A 
ATOM     68  C   UNL     1       1.792   1.622   5.495  0.00  0.00    +0.011 A 
ATOM     69  C   UNL     1       0.667   0.955   5.995  0.00  0.00    -0.025 A 
ATOM     70  C   UNL     1       0.139  -0.108   5.250  0.00  0.00    +0.011 A 
ATOM     71  C   UNL     1       0.724  -0.492   4.039  0.00  0.00    +0.046 A 
BRANCH  69  72
ATOM     72  C   UNL     1      -0.008   1.351   7.243  0.00  0.00    +0.015 C 
ATOM     73  C   UNL     1       0.589   1.995   8.259  0.00  0.00    +0.092 C 
BRANCH  73  74
ATOM     74  C   UNL     1      -0.098   2.355   9.512  0.00  0.00    +0.330 C 
ATOM     75  O   UNL     1       0.478   2.373  10.587  0.00  0.00    -0.246 OA
BRANCH  74  76
ATOM     76  O   UNL     1      -1.386   2.713   9.352  0.00  0.00    -0.478 OA
ATOM     77  H   UNL     1      -1.650   2.837   8.423  0.00  0.00    +0.295 HD
ENDBRANCH  74  76
ENDBRANCH  73  74
ENDBRANCH  69  72
ENDBRANCH  65  66
ENDBRANCH  56  65
ENDBRANCH  53  59
ENDBRANCH  52  53
ENDBRANCH  40  52
ENDBRANCH   1  42
TORSDOF 26
