REMARK  Name = opt4.xyz
REMARK  6 active torsions:
REMARK  status: ('A' for Active; 'I' for Inactive)
REMARK    1  A    between atoms: C_2  and  O_21
REMARK    2  A    between atoms: C_3  and  C_13
REMARK    3  A    between atoms: C_7  and  O_12
REMARK    4  A    between atoms: C_9  and  O_11
REMARK    5  A    between atoms: C_15  and  O_20
REMARK    6  A    between atoms: C_16  and  O_19
REMARK                            x       y       z     vdW  Elec       q    Type
REMARK                         _______ _______ _______ _____ _____    ______ ____
ROOT
ATOM      1  C   UNL     1      -1.260   1.638   0.027  0.00  0.00    +0.078 C 
ATOM      2  C   UNL     1      -0.024   0.787   0.001  0.00  0.00    +0.038 A 
ATOM      3  C   UNL     1       1.247   1.373   0.043  0.00  0.00    +0.127 A 
ATOM      4  C   UNL     1       2.403   0.596   0.013  0.00  0.00    +0.091 A 
ATOM      5  C   UNL     1       2.287  -0.787  -0.057  0.00  0.00    +0.124 A 
ATOM      6  C   UNL     1       1.038  -1.398  -0.086  0.00  0.00    +0.091 A 
ATOM      7  C   UNL     1      -0.114  -0.609  -0.039  0.00  0.00    +0.132 A 
ATOM      8  O   UNL     1      -1.301  -1.293  -0.064  0.00  0.00    -0.481 OA
ATOM      9  C   UNL     1      -2.438  -0.531   0.373  0.00  0.00    +0.232 C 
ATOM     10  C   UNL     1      -2.510   0.838  -0.336  0.00  0.00    +0.164 C 
ENDROOT
BRANCH   9  11
ATOM     11  C   UNL     1      -3.673  -1.385   0.126  0.00  0.00    -0.001 A 
ATOM     12  C   UNL     1      -4.497  -1.758   1.206  0.00  0.00    +0.011 A 
ATOM     13  C   UNL     1      -5.643  -2.528   0.999  0.00  0.00    +0.049 A 
ATOM     14  C   UNL     1      -5.966  -2.929  -0.287  0.00  0.00    +0.158 A 
ATOM     15  C   UNL     1      -5.159  -2.579  -1.366  0.00  0.00    +0.159 A 
ATOM     16  C   UNL     1      -4.013  -1.814  -1.170  0.00  0.00    +0.056 A 
BRANCH  14  17
ATOM     17  O   UNL     1      -7.090  -3.677  -0.490  0.00  0.00    -0.503 OA
ATOM     18  H   UNL     1      -7.110  -3.826  -1.457  0.00  0.00    +0.292 HD
ENDBRANCH  14  17
BRANCH  15  19
ATOM     19  O   UNL     1      -5.537  -3.010  -2.608  0.00  0.00    -0.503 OA
ATOM     20  H   UNL     1      -4.894  -2.667  -3.252  0.00  0.00    +0.292 HD
ENDBRANCH  15  19
ENDBRANCH   9  11
BRANCH   3  21
ATOM     21  O   UNL     1       1.337   2.735   0.117  0.00  0.00    -0.506 OA
ATOM     22  H   UNL     1       2.276   2.986   0.125  0.00  0.00    +0.292 HD
ENDBRANCH   3  21
BRANCH   5  23
ATOM     23  O   UNL     1       3.438  -1.518  -0.091  0.00  0.00    -0.507 OA
ATOM     24  H   UNL     1       3.206  -2.461  -0.138  0.00  0.00    +0.292 HD
ENDBRANCH   5  23
BRANCH  10  25
ATOM     25  O   UNL     1      -3.668   1.596   0.026  0.00  0.00    -0.387 OA
ATOM     26  H   UNL     1      -3.738   1.611   0.996  0.00  0.00    +0.210 HD
ENDBRANCH  10  25
TORSDOF 6
