REMARK  Name = opt41.xyz
REMARK  29 active torsions:
REMARK  status: ('A' for Active; 'I' for Inactive)
REMARK    1  A    between atoms: C_1  and  O_2
REMARK    2  A    between atoms: O_2  and  C_3
REMARK    3  A    between atoms: C_5  and  C_10
REMARK    4  A    between atoms: C_8  and  O_9
REMARK    5  A    between atoms: C_11  and  O_33
REMARK    6  A    between atoms: C_14  and  O_15
REMARK    7  A    between atoms: O_15  and  C_16
REMARK    8  A    between atoms: C_18  and  C_19
REMARK    9  A    between atoms: C_19  and  O_20
REMARK   10  A    between atoms: C_21  and  O_22
REMARK   11  A    between atoms: C_23  and  O_24
REMARK   12  A    between atoms: C_25  and  O_26
REMARK   13  A    between atoms: C_28  and  O_29
REMARK   14  A    between atoms: O_33  and  C_34
REMARK   15  A    between atoms: C_36  and  C_37
REMARK   16  A    between atoms: C_37  and  O_38
REMARK   17  A    between atoms: O_38  and  C_39
REMARK   18  A    between atoms: C_41  and  C_42
REMARK   19  A    between atoms: C_43  and  O_44
REMARK   20  A    between atoms: O_44  and  C_45
REMARK   21  A    between atoms: C_46  and  O_47
REMARK   22  A    between atoms: C_49  and  C_50
REMARK   23  A    between atoms: C_51  and  C_52
REMARK   24  A    between atoms: C_52  and  O_53
REMARK   25  A    between atoms: C_57  and  O_58
REMARK   26  A    between atoms: C_59  and  O_60
REMARK   27  A    between atoms: C_61  and  O_62
REMARK   28  A    between atoms: C_63  and  O_64
REMARK   29  A    between atoms: C_65  and  O_66
REMARK                            x       y       z     vdW  Elec       q    Type
REMARK                         _______ _______ _______ _____ _____    ______ ____
ROOT
ATOM      1  C   UNL     1       2.869   8.578  -3.731  0.00  0.00    +0.339 C 
ATOM      2  O   UNL     1       3.638   9.462  -2.897  0.00  0.00    -0.331 OA
ATOM      3  C   UNL     1       2.874  10.480  -2.218  0.00  0.00    +0.179 C 
ATOM      4  C   UNL     1       2.112  11.348  -3.230  0.00  0.00    +0.177 C 
ATOM      5  C   UNL     1       1.254  10.466  -4.151  0.00  0.00    +0.180 C 
ATOM      6  C   UNL     1       2.121   9.384  -4.818  0.00  0.00    +0.214 C 
ENDROOT
BRANCH   5   7
ATOM      7  O   UNL     1       0.626  11.294  -5.139  0.00  0.00    -0.386 OA
ATOM      8  H   UNL     1       1.301  11.940  -5.428  0.00  0.00    +0.210 HD
ENDBRANCH   5   7
BRANCH   4   9
ATOM      9  O   UNL     1       3.015  12.112  -4.054  0.00  0.00    -0.386 OA
ATOM     10  H   UNL     1       3.804  11.568  -4.233  0.00  0.00    +0.210 HD
ENDBRANCH   4   9
BRANCH   6  11
ATOM     11  O   UNL     1       1.341   8.527  -5.659  0.00  0.00    -0.383 OA
ATOM     12  H   UNL     1       0.647   8.123  -5.108  0.00  0.00    +0.210 HD
ENDBRANCH   6  11
BRANCH   3  13
ATOM     13  C   UNL     1       3.870  11.302  -1.374  0.00  0.00    +0.197 C 
BRANCH  13  14
ATOM     14  O   UNL     1       3.227  12.350  -0.639  0.00  0.00    -0.346 OA
BRANCH  14  15
ATOM     15  C   UNL     1       4.194  13.239  -0.045  0.00  0.00    +0.282 C 
ATOM     16  O   UNL     1       4.939  12.593   0.989  0.00  0.00    -0.342 OA
ATOM     17  C   UNL     1       4.137  12.204   2.114  0.00  0.00    +0.161 C 
ATOM     18  C   UNL     1       5.071  11.519   3.101  0.00  0.00    +0.042 C 
ATOM     19  C   UNL     1       3.403  13.396   2.760  0.00  0.00    +0.233 C 
ATOM     20  C   UNL     1       2.597  14.140   1.686  0.00  0.00    +0.191 C 
ATOM     21  C   UNL     1       3.497  14.507   0.494  0.00  0.00    +0.202 C 
BRANCH  21  22
ATOM     22  O   UNL     1       2.745  15.157  -0.536  0.00  0.00    -0.384 OA
ATOM     23  H   UNL     1       2.117  14.500  -0.889  0.00  0.00    +0.210 HD
ENDBRANCH  21  22
BRANCH  20  24
ATOM     24  O   UNL     1       1.984  15.303   2.260  0.00  0.00    -0.385 OA
ATOM     25  H   UNL     1       2.695  15.941   2.453  0.00  0.00    +0.210 HD
ENDBRANCH  20  24
BRANCH  19  26
ATOM     26  O   UNL     1       4.374  14.311   3.314  0.00  0.00    -0.480 OA
BRANCH  26  27
ATOM     27  C   UNL     1       4.338  14.573   4.659  0.00  0.00    +0.162 A 
ATOM     28  C   UNL     1       3.228  14.461   5.490  0.00  0.00    +0.050 A 
ATOM     29  C   UNL     1       3.337  14.760   6.858  0.00  0.00    +0.012 A 
ATOM     30  C   UNL     1       4.544  15.215   7.409  0.00  0.00    -0.021 A 
ATOM     31  C   UNL     1       5.653  15.343   6.566  0.00  0.00    +0.057 A 
ATOM     32  C   UNL     1       5.538  15.031   5.213  0.00  0.00    +0.159 A 
BRANCH  32  33
ATOM     33  O   UNL     1       6.651  15.178   4.428  0.00  0.00    -0.503 OA
ATOM     34  H   UNL     1       6.376  14.913   3.530  0.00  0.00    +0.292 HD
ENDBRANCH  32  33
BRANCH  30  35
ATOM     35  C   UNL     1       4.702  15.518   8.841  0.00  0.00    +0.015 C 
ATOM     36  C   UNL     1       3.713  15.968   9.631  0.00  0.00    +0.092 C 
BRANCH  36  37
ATOM     37  C   UNL     1       3.879  16.231  11.070  0.00  0.00    +0.330 C 
ATOM     38  O   UNL     1       2.990  16.009  11.877  0.00  0.00    -0.246 OA
BRANCH  37  39
ATOM     39  O   UNL     1       5.060  16.786  11.396  0.00  0.00    -0.478 OA
ATOM     40  H   UNL     1       5.591  17.067  10.628  0.00  0.00    +0.295 HD
ENDBRANCH  37  39
ENDBRANCH  36  37
ENDBRANCH  30  35
ENDBRANCH  26  27
ENDBRANCH  19  26
ENDBRANCH  14  15
ENDBRANCH  13  14
ENDBRANCH   3  13
BRANCH   1  41
ATOM     41  O   UNL     1       1.908   7.780  -3.011  0.00  0.00    -0.461 OA
BRANCH  41  51
ATOM     42  C   UNL     1       2.289   5.452  -2.531  0.00  0.00    +0.173 C 
ATOM     43  O   UNL     1       2.681   4.428  -1.677  0.00  0.00    -0.452 OA
ATOM     44  C   UNL     1       3.141   4.732  -0.425  0.00  0.00    +0.139 A 
ATOM     45  C   UNL     1       3.308   3.663   0.454  0.00  0.00    +0.092 A 
ATOM     46  C   UNL     1       3.768   3.904   1.741  0.00  0.00    +0.124 A 
ATOM     47  C   UNL     1       4.109   5.190   2.144  0.00  0.00    +0.091 A 
ATOM     48  C   UNL     1       3.987   6.241   1.234  0.00  0.00    +0.135 A 
ATOM     49  C   UNL     1       3.436   6.036  -0.036  0.00  0.00    +0.044 A 
ATOM     50  C   UNL     1       3.141   7.177  -0.968  0.00  0.00    +0.120 C 
ATOM     51  C   UNL     1       2.458   6.761  -2.248  0.00  0.00    +0.148 C 
BRANCH  42  54
ATOM     52  C   UNL     1       2.120   3.303  -5.602  0.00  0.00    +0.162 A 
ATOM     53  C   UNL     1       2.599   4.060  -4.532  0.00  0.00    +0.061 A 
ATOM     54  C   UNL     1       1.743   4.886  -3.776  0.00  0.00    +0.024 A 
ATOM     55  C   UNL     1       0.396   4.983  -4.131  0.00  0.00    +0.015 A 
ATOM     56  C   UNL     1      -0.094   4.241  -5.212  0.00  0.00    +0.050 A 
ATOM     57  C   UNL     1       0.763   3.400  -5.929  0.00  0.00    +0.158 A 
BRANCH  52  59
ATOM     58  C   UNL     1       4.202   2.181  -5.901  0.00  0.00    +0.277 C 
ATOM     59  O   UNL     1       2.878   2.440  -6.349  0.00  0.00    -0.491 OA
ENDBRANCH  52  59
BRANCH  57  60
ATOM     60  O   UNL     1       0.270   2.631  -6.950  0.00  0.00    -0.503 OA
ATOM     61  H   UNL     1      -0.696   2.705  -6.969  0.00  0.00    +0.292 HD
ENDBRANCH  57  60
ENDBRANCH  42  54
BRANCH  46  62
ATOM     62  O   UNL     1       3.866   2.843   2.590  0.00  0.00    -0.507 OA
ATOM     63  H   UNL     1       4.098   3.159   3.479  0.00  0.00    +0.292 HD
ENDBRANCH  46  62
BRANCH  48  64
ATOM     64  O   UNL     1       4.280   7.512   1.624  0.00  0.00    -0.460 OA
BRANCH  64  65
ATOM     65  C   UNL     1       5.686   7.851   1.658  0.00  0.00    +0.339 C 
ATOM     66  C   UNL     1       6.205   7.930   3.120  0.00  0.00    +0.214 C 
ATOM     67  C   UNL     1       7.200   6.825   3.478  0.00  0.00    +0.180 C 
ATOM     68  C   UNL     1       8.180   6.584   2.332  0.00  0.00    +0.177 C 
ATOM     69  C   UNL     1       7.387   6.194   1.082  0.00  0.00    +0.179 C 
ATOM     70  O   UNL     1       6.548   7.281   0.668  0.00  0.00    -0.331 OA
BRANCH  68  71
ATOM     71  O   UNL     1       8.946   7.784   2.115  0.00  0.00    -0.386 OA
ATOM     72  H   UNL     1       8.564   8.260   1.353  0.00  0.00    +0.210 HD
ENDBRANCH  68  71
BRANCH  67  73
ATOM     73  O   UNL     1       7.941   7.191   4.653  0.00  0.00    -0.386 OA
ATOM     74  H   UNL     1       8.607   7.848   4.369  0.00  0.00    +0.210 HD
ENDBRANCH  67  73
BRANCH  66  75
ATOM     75  O   UNL     1       5.128   7.967   4.073  0.00  0.00    -0.383 OA
ATOM     76  H   UNL     1       4.289   8.002   3.574  0.00  0.00    +0.210 HD
ENDBRANCH  66  75
BRANCH  69  77
ATOM     77  C   UNL     1       8.317   5.849  -0.092  0.00  0.00    +0.190 C 
BRANCH  77  78
ATOM     78  O   UNL     1       9.282   4.867   0.261  0.00  0.00    -0.392 OA
ATOM     79  H   UNL     1      10.074   5.334   0.587  0.00  0.00    +0.210 HD
ENDBRANCH  77  78
ENDBRANCH  69  77
ENDBRANCH  64  65
ENDBRANCH  48  64
ENDBRANCH  41  51
ENDBRANCH   1  41
TORSDOF 27
