REMARK  Name = opt47.xyz
REMARK  30 active torsions:
REMARK  status: ('A' for Active; 'I' for Inactive)
REMARK    1  A    between atoms: C_1  and  O_2
REMARK    2  A    between atoms: O_2  and  C_3
REMARK    3  A    between atoms: C_5  and  C_11
REMARK    4  A    between atoms: C_7  and  O_10
REMARK    5  A    between atoms: C_8  and  O_9
REMARK    6  A    between atoms: C_12  and  O_34
REMARK    7  A    between atoms: C_15  and  O_16
REMARK    8  A    between atoms: O_16  and  C_17
REMARK    9  A    between atoms: C_19  and  C_20
REMARK   10  A    between atoms: C_20  and  O_21
REMARK   11  A    between atoms: C_22  and  O_23
REMARK   12  A    between atoms: C_24  and  O_25
REMARK   13  A    between atoms: C_26  and  O_27
REMARK   14  A    between atoms: C_29  and  O_30
REMARK   15  A    between atoms: O_34  and  C_35
REMARK   16  A    between atoms: C_37  and  C_38
REMARK   17  A    between atoms: C_38  and  O_39
REMARK   18  A    between atoms: O_39  and  C_40
REMARK   19  A    between atoms: C_42  and  C_43
REMARK   20  A    between atoms: C_44  and  O_45
REMARK   21  A    between atoms: O_45  and  C_46
REMARK   22  A    between atoms: C_47  and  O_48
REMARK   23  A    between atoms: C_50  and  C_51
REMARK   24  A    between atoms: C_52  and  C_53
REMARK   25  A    between atoms: C_53  and  O_54
REMARK   26  A    between atoms: C_58  and  O_59
REMARK   27  A    between atoms: C_60  and  O_61
REMARK   28  A    between atoms: C_62  and  O_63
REMARK   29  A    between atoms: C_64  and  O_65
REMARK   30  A    between atoms: C_66  and  O_67
REMARK                            x       y       z     vdW  Elec       q    Type
REMARK                         _______ _______ _______ _____ _____    ______ ____
ROOT
ATOM      1  O   UNL     1       1.415   4.934   2.161  0.00  0.00    -0.461 OA
ENDROOT
BRANCH   1   3
ATOM      2  C   UNL     1       0.437   5.952   0.199  0.00  0.00    +0.173 C 
ATOM      3  C   UNL     1       1.417   5.874   1.126  0.00  0.00    +0.148 C 
ATOM      4  C   UNL     1       2.598   6.811   1.080  0.00  0.00    +0.120 C 
ATOM      5  C   UNL     1       2.664   7.620  -0.192  0.00  0.00    +0.044 A 
ATOM      6  C   UNL     1       3.802   8.384  -0.518  0.00  0.00    +0.135 A 
ATOM      7  C   UNL     1       3.796   9.191  -1.659  0.00  0.00    +0.091 A 
ATOM      8  C   UNL     1       2.684   9.187  -2.498  0.00  0.00    +0.124 A 
ATOM      9  C   UNL     1       1.571   8.412  -2.209  0.00  0.00    +0.092 A 
ATOM     10  C   UNL     1       1.563   7.637  -1.052  0.00  0.00    +0.139 A 
ATOM     11  O   UNL     1       0.442   6.875  -0.839  0.00  0.00    -0.452 OA
BRANCH   2  14
ATOM     12  C   UNL     1      -2.462   3.674   1.159  0.00  0.00    +0.166 A 
ATOM     13  C   UNL     1      -1.442   4.631   1.248  0.00  0.00    +0.061 A 
ATOM     14  C   UNL     1      -0.696   5.006   0.115  0.00  0.00    +0.028 A 
ATOM     15  C   UNL     1      -1.017   4.445  -1.130  0.00  0.00    +0.061 A 
ATOM     16  C   UNL     1      -2.024   3.500  -1.219  0.00  0.00    +0.163 A 
ATOM     17  C   UNL     1      -2.747   3.124  -0.092  0.00  0.00    +0.201 A 
BRANCH  17  18
ATOM     18  O   UNL     1      -3.743   2.200  -0.276  0.00  0.00    -0.501 OA
ATOM     19  H   UNL     1      -4.543   2.733  -0.438  0.00  0.00    +0.292 HD
ENDBRANCH  17  18
BRANCH  12  21
ATOM     20  C   UNL     1      -2.692   3.502   3.514  0.00  0.00    +0.277 C 
ATOM     21  O   UNL     1      -3.219   3.241   2.216  0.00  0.00    -0.491 OA
ENDBRANCH  12  21
BRANCH  16  22
ATOM     22  O   UNL     1      -2.283   2.917  -2.427  0.00  0.00    -0.503 OA
ATOM     23  H   UNL     1      -2.837   2.139  -2.216  0.00  0.00    +0.292 HD
ENDBRANCH  16  22
ENDBRANCH   2  14
BRANCH   8  24
ATOM     24  O   UNL     1       2.676   9.899  -3.664  0.00  0.00    -0.507 OA
ATOM     25  H   UNL     1       3.297  10.646  -3.565  0.00  0.00    +0.292 HD
ENDBRANCH   8  24
BRANCH   6  26
ATOM     26  O   UNL     1       4.904   8.156   0.257  0.00  0.00    -0.460 OA
BRANCH  26  27
ATOM     27  C   UNL     1       5.870   9.200   0.455  0.00  0.00    +0.339 C 
ATOM     28  C   UNL     1       6.827   8.748   1.582  0.00  0.00    +0.214 C 
ATOM     29  C   UNL     1       7.632   7.529   1.105  0.00  0.00    +0.180 C 
ATOM     30  C   UNL     1       8.368   7.854  -0.198  0.00  0.00    +0.177 C 
ATOM     31  C   UNL     1       7.365   8.383  -1.240  0.00  0.00    +0.179 C 
ATOM     32  O   UNL     1       6.631   9.513  -0.724  0.00  0.00    -0.331 OA
BRANCH  30  33
ATOM     33  O   UNL     1       9.383   8.819   0.138  0.00  0.00    -0.386 OA
ATOM     34  H   UNL     1       9.686   9.221  -0.706  0.00  0.00    +0.210 HD
ENDBRANCH  30  33
BRANCH  29  35
ATOM     35  O   UNL     1       8.573   7.167   2.130  0.00  0.00    -0.386 OA
ATOM     36  H   UNL     1       9.355   7.738   1.966  0.00  0.00    +0.210 HD
ENDBRANCH  29  35
BRANCH  28  37
ATOM     37  O   UNL     1       6.128   8.411   2.789  0.00  0.00    -0.383 OA
ATOM     38  H   UNL     1       6.768   7.896   3.321  0.00  0.00    +0.210 HD
ENDBRANCH  28  37
BRANCH  31  39
ATOM     39  C   UNL     1       8.049   8.849  -2.531  0.00  0.00    +0.190 C 
BRANCH  39  40
ATOM     40  O   UNL     1       8.971   9.906  -2.254  0.00  0.00    -0.392 OA
ATOM     41  H   UNL     1       8.430  10.648  -1.916  0.00  0.00    +0.210 HD
ENDBRANCH  39  40
ENDBRANCH  31  39
ENDBRANCH  26  27
ENDBRANCH   6  26
ENDBRANCH   1   3
BRANCH   1  42
ATOM     42  C   UNL     1       2.166   3.774   1.773  0.00  0.00    +0.339 C 
ATOM     43  C   UNL     1       1.759   2.503   2.553  0.00  0.00    +0.214 C 
ATOM     44  C   UNL     1       2.659   1.329   2.104  0.00  0.00    +0.180 C 
ATOM     45  C   UNL     1       4.159   1.684   2.103  0.00  0.00    +0.177 C 
ATOM     46  C   UNL     1       4.337   3.000   1.347  0.00  0.00    +0.179 C 
ATOM     47  O   UNL     1       3.568   4.007   2.013  0.00  0.00    -0.331 OA
BRANCH  45  48
ATOM     48  O   UNL     1       4.601   1.783   3.462  0.00  0.00    -0.386 OA
ATOM     49  H   UNL     1       4.390   2.684   3.777  0.00  0.00    +0.210 HD
ENDBRANCH  45  48
BRANCH  44  50
ATOM     50  O   UNL     1       2.408   0.192   2.940  0.00  0.00    -0.386 OA
ATOM     51  H   UNL     1       3.132   0.173   3.599  0.00  0.00    +0.210 HD
ENDBRANCH  44  50
BRANCH  43  52
ATOM     52  O   UNL     1       0.398   2.136   2.305  0.00  0.00    -0.383 OA
ATOM     53  H   UNL     1       0.300   1.217   2.624  0.00  0.00    +0.210 HD
ENDBRANCH  43  52
BRANCH  46  54
ATOM     54  C   UNL     1       5.786   3.485   1.178  0.00  0.00    +0.197 C 
BRANCH  54  55
ATOM     55  O   UNL     1       6.392   3.107  -0.076  0.00  0.00    -0.346 OA
BRANCH  55  56
ATOM     56  C   UNL     1       5.665   3.598  -1.216  0.00  0.00    +0.282 C 
ATOM     57  O   UNL     1       4.614   2.691  -1.543  0.00  0.00    -0.342 OA
ATOM     58  C   UNL     1       5.064   1.403  -1.971  0.00  0.00    +0.161 C 
ATOM     59  C   UNL     1       3.862   0.469  -2.051  0.00  0.00    +0.042 C 
ATOM     60  C   UNL     1       5.829   1.537  -3.292  0.00  0.00    +0.233 C 
ATOM     61  C   UNL     1       7.013   2.513  -3.080  0.00  0.00    +0.191 C 
ATOM     62  C   UNL     1       6.601   3.841  -2.419  0.00  0.00    +0.202 C 
BRANCH  62  63
ATOM     63  O   UNL     1       7.748   4.606  -2.006  0.00  0.00    -0.384 OA
ATOM     64  H   UNL     1       8.188   4.079  -1.310  0.00  0.00    +0.210 HD
ENDBRANCH  62  63
BRANCH  61  65
ATOM     65  O   UNL     1       7.752   2.699  -4.290  0.00  0.00    -0.385 OA
ATOM     66  H   UNL     1       7.312   3.386  -4.824  0.00  0.00    +0.210 HD
ENDBRANCH  61  65
BRANCH  60  67
ATOM     67  O   UNL     1       4.985   1.741  -4.453  0.00  0.00    -0.480 OA
BRANCH  67  68
ATOM     68  C   UNL     1       4.457   2.970  -4.717  0.00  0.00    +0.162 A 
ATOM     69  C   UNL     1       3.421   3.542  -3.987  0.00  0.00    +0.050 A 
ATOM     70  C   UNL     1       2.948   4.818  -4.311  0.00  0.00    +0.012 A 
ATOM     71  C   UNL     1       3.460   5.500  -5.419  0.00  0.00    -0.021 A 
ATOM     72  C   UNL     1       4.426   4.881  -6.219  0.00  0.00    +0.057 A 
ATOM     73  C   UNL     1       4.907   3.624  -5.864  0.00  0.00    +0.159 A 
BRANCH  73  74
ATOM     74  O   UNL     1       5.860   3.045  -6.654  0.00  0.00    -0.503 OA
ATOM     75  H   UNL     1       5.935   2.116  -6.355  0.00  0.00    +0.292 HD
ENDBRANCH  73  74
BRANCH  71  76
ATOM     76  C   UNL     1       2.982   6.850  -5.718  0.00  0.00    +0.015 C 
ATOM     77  C   UNL     1       2.136   7.086  -6.731  0.00  0.00    +0.092 C 
BRANCH  77  78
ATOM     78  C   UNL     1       1.621   8.401  -7.147  0.00  0.00    +0.330 C 
ATOM     79  O   UNL     1       1.120   8.560  -8.252  0.00  0.00    -0.246 OA
BRANCH  78  80
ATOM     80  O   UNL     1       1.724   9.396  -6.251  0.00  0.00    -0.478 OA
ATOM     81  H   UNL     1       2.012   9.164  -5.344  0.00  0.00    +0.295 HD
ENDBRANCH  78  80
ENDBRANCH  77  78
ENDBRANCH  71  76
ENDBRANCH  67  68
ENDBRANCH  60  67
ENDBRANCH  55  56
ENDBRANCH  54  55
ENDBRANCH  46  54
ENDBRANCH   1  42
TORSDOF 28
