REMARK  Name = opt40.xyz
REMARK  27 active torsions:
REMARK  status: ('A' for Active; 'I' for Inactive)
REMARK    1  A    between atoms: C_1  and  C_2
REMARK    2  A    between atoms: C_4  and  O_5
REMARK    3  A    between atoms: O_5  and  C_6
REMARK    4  A    between atoms: C_6  and  C_7
REMARK    5  A    between atoms: C_9  and  O_10
REMARK    6  A    between atoms: O_10  and  C_11
REMARK    7  A    between atoms: C_14  and  O_15
REMARK    8  A    between atoms: O_15  and  C_16
REMARK    9  A    between atoms: C_18  and  C_19
REMARK   10  A    between atoms: C_19  and  O_20
REMARK   11  A    between atoms: C_21  and  O_22
REMARK   12  A    between atoms: C_23  and  O_24
REMARK   13  A    between atoms: C_25  and  O_26
REMARK   14  A    between atoms: C_28  and  O_29
REMARK   15  A    between atoms: C_33  and  C_34
REMARK   16  A    between atoms: C_37  and  O_38
REMARK   17  A    between atoms: C_41  and  O_42
REMARK   18  A    between atoms: C_43  and  O_44
REMARK   19  A    between atoms: C_45  and  O_46
REMARK   20  A    between atoms: C_47  and  O_48
REMARK   21  A    between atoms: C_49  and  O_50
REMARK   22  A    between atoms: C_51  and  O_52
REMARK   23  A    between atoms: O_52  and  C_53
REMARK   24  A    between atoms: C_54  and  O_55
REMARK   25  A    between atoms: C_57  and  C_58
REMARK   26  A    between atoms: C_59  and  C_60
REMARK   27  A    between atoms: C_60  and  O_61
REMARK                            x       y       z     vdW  Elec       q    Type
REMARK                         _______ _______ _______ _____ _____    ______ ____
ROOT
ATOM      1  C   UNL     1       2.915   3.821  -4.004  0.00  0.00    +0.179 C 
ATOM      2  O   UNL     1       3.390   4.959  -3.255  0.00  0.00    -0.331 OA
ATOM      3  C   UNL     1       2.355   5.799  -2.721  0.00  0.00    +0.339 C 
ATOM      4  C   UNL     1       1.503   6.364  -3.879  0.00  0.00    +0.214 C 
ATOM      5  C   UNL     1       0.910   5.213  -4.686  0.00  0.00    +0.180 C 
ATOM      6  C   UNL     1       2.014   4.264  -5.170  0.00  0.00    +0.177 C 
ENDROOT
BRANCH   6   7
ATOM      7  O   UNL     1       1.419   3.144  -5.832  0.00  0.00    -0.386 OA
ATOM      8  H   UNL     1       0.713   3.521  -6.398  0.00  0.00    +0.210 HD
ENDBRANCH   6   7
BRANCH   4   9
ATOM      9  O   UNL     1       2.297   7.166  -4.783  0.00  0.00    -0.383 OA
ATOM     10  H   UNL     1       3.021   7.543  -4.244  0.00  0.00    +0.210 HD
ENDBRANCH   4   9
BRANCH   5  11
ATOM     11  O   UNL     1       0.211   5.721  -5.834  0.00  0.00    -0.386 OA
ATOM     12  H   UNL     1       0.756   6.471  -6.155  0.00  0.00    +0.210 HD
ENDBRANCH   5  11
BRANCH   3  13
ATOM     13  O   UNL     1       2.971   6.895  -2.021  0.00  0.00    -0.461 OA
BRANCH  13  14
ATOM     14  C   UNL     1       2.300   7.461  -0.947  0.00  0.00    +0.147 C 
ATOM     15  C   UNL     1       3.167   8.347  -0.058  0.00  0.00    +0.268 C 
ATOM     16  O   UNL     1       2.460   9.197   0.871  0.00  0.00    -0.476 OA
ATOM     17  C   UNL     1       1.219   8.787   1.273  0.00  0.00    +0.136 A 
ATOM     18  C   UNL     1       0.730   9.346   2.449  0.00  0.00    +0.092 A 
ATOM     19  C   UNL     1      -0.537   8.995   2.899  0.00  0.00    +0.124 A 
ATOM     20  C   UNL     1      -1.342   8.115   2.176  0.00  0.00    +0.092 A 
ATOM     21  C   UNL     1      -0.863   7.566   0.986  0.00  0.00    +0.138 A 
ATOM     22  C   UNL     1       0.438   7.889   0.542  0.00  0.00    +0.062 A 
ATOM     23  C   UNL     1       0.999   7.288  -0.668  0.00  0.00    +0.060 C 
BRANCH  15  24
ATOM     24  C   UNL     1       4.230   7.607   0.744  0.00  0.00    +0.000 A 
ATOM     25  C   UNL     1       3.941   6.421   1.441  0.00  0.00    +0.011 A 
ATOM     26  C   UNL     1       4.913   5.805   2.231  0.00  0.00    +0.046 A 
ATOM     27  C   UNL     1       6.175   6.376   2.341  0.00  0.00    +0.117 A 
ATOM     28  C   UNL     1       6.485   7.552   1.669  0.00  0.00    +0.046 A 
ATOM     29  C   UNL     1       5.514   8.166   0.876  0.00  0.00    +0.011 A 
BRANCH  27  30
ATOM     30  O   UNL     1       7.088   5.751   3.138  0.00  0.00    -0.507 OA
ATOM     31  H   UNL     1       7.904   6.277   3.141  0.00  0.00    +0.292 HD
ENDBRANCH  27  30
ENDBRANCH  15  24
BRANCH  19  32
ATOM     32  O   UNL     1      -0.971   9.556   4.065  0.00  0.00    -0.507 OA
ATOM     33  H   UNL     1      -1.874   9.249   4.249  0.00  0.00    +0.292 HD
ENDBRANCH  19  32
BRANCH  21  34
ATOM     34  O   UNL     1      -1.584   6.761   0.150  0.00  0.00    -0.460 OA
BRANCH  34  35
ATOM     35  C   UNL     1      -2.722   6.037   0.614  0.00  0.00    +0.339 C 
ATOM     36  C   UNL     1      -4.046   6.744   0.252  0.00  0.00    +0.214 C 
ATOM     37  C   UNL     1      -4.172   6.858  -1.273  0.00  0.00    +0.180 C 
ATOM     38  C   UNL     1      -3.990   5.491  -1.949  0.00  0.00    +0.177 C 
ATOM     39  C   UNL     1      -2.697   4.823  -1.458  0.00  0.00    +0.179 C 
ATOM     40  O   UNL     1      -2.720   4.732  -0.018  0.00  0.00    -0.331 OA
BRANCH  38  41
ATOM     41  O   UNL     1      -5.141   4.684  -1.634  0.00  0.00    -0.386 OA
ATOM     42  H   UNL     1      -4.966   4.231  -0.786  0.00  0.00    +0.210 HD
ENDBRANCH  38  41
BRANCH  37  43
ATOM     43  O   UNL     1      -5.469   7.398  -1.577  0.00  0.00    -0.386 OA
ATOM     44  H   UNL     1      -6.056   6.627  -1.724  0.00  0.00    +0.210 HD
ENDBRANCH  37  43
BRANCH  36  45
ATOM     45  O   UNL     1      -4.179   8.039   0.846  0.00  0.00    -0.383 OA
ATOM     46  H   UNL     1      -4.862   8.501   0.318  0.00  0.00    +0.210 HD
ENDBRANCH  36  45
BRANCH  39  47
ATOM     47  C   UNL     1      -2.496   3.416  -2.031  0.00  0.00    +0.190 C 
BRANCH  47  48
ATOM     48  O   UNL     1      -2.341   3.453  -3.444  0.00  0.00    -0.392 OA
ATOM     49  H   UNL     1      -3.231   3.420  -3.840  0.00  0.00    +0.210 HD
ENDBRANCH  47  48
ENDBRANCH  39  47
ENDBRANCH  34  35
ENDBRANCH  21  34
ENDBRANCH  13  14
ENDBRANCH   3  13
BRANCH   1  50
ATOM     50  C   UNL     1       2.247   2.750  -3.119  0.00  0.00    +0.197 C 
BRANCH  50  51
ATOM     51  O   UNL     1       3.152   2.334  -2.089  0.00  0.00    -0.346 OA
BRANCH  51  57
ATOM     52  C   UNL     1       0.124  -0.217  -0.375  0.00  0.00    +0.042 C 
ATOM     53  C   UNL     1       0.877   0.892   0.364  0.00  0.00    +0.161 C 
ATOM     54  C   UNL     1       1.912   0.398   1.397  0.00  0.00    +0.233 C 
ATOM     55  C   UNL     1       3.135  -0.199   0.680  0.00  0.00    +0.191 C 
ATOM     56  C   UNL     1       3.692   0.803  -0.332  0.00  0.00    +0.202 C 
ATOM     57  C   UNL     1       2.585   1.293  -1.285  0.00  0.00    +0.282 C 
ATOM     58  O   UNL     1       1.466   1.811  -0.563  0.00  0.00    -0.342 OA
BRANCH  56  59
ATOM     59  O   UNL     1       4.253   1.911   0.411  0.00  0.00    -0.384 OA
ATOM     60  H   UNL     1       4.323   2.644  -0.237  0.00  0.00    +0.210 HD
ENDBRANCH  56  59
BRANCH  55  61
ATOM     61  O   UNL     1       4.163  -0.514   1.633  0.00  0.00    -0.385 OA
ATOM     62  H   UNL     1       4.620   0.334   1.813  0.00  0.00    +0.210 HD
ENDBRANCH  55  61
BRANCH  54  63
ATOM     63  O   UNL     1       1.330  -0.598   2.261  0.00  0.00    -0.480 OA
BRANCH  63  64
ATOM     64  C   UNL     1       0.772  -0.118   3.418  0.00  0.00    +0.162 A 
ATOM     65  C   UNL     1       1.351   0.851   4.231  0.00  0.00    +0.050 A 
ATOM     66  C   UNL     1       0.687   1.288   5.384  0.00  0.00    +0.012 A 
ATOM     67  C   UNL     1      -0.543   0.731   5.763  0.00  0.00    -0.021 A 
ATOM     68  C   UNL     1      -1.104  -0.269   4.960  0.00  0.00    +0.057 A 
ATOM     69  C   UNL     1      -0.436  -0.694   3.814  0.00  0.00    +0.159 A 
BRANCH  69  70
ATOM     70  O   UNL     1      -0.998  -1.700   3.076  0.00  0.00    -0.503 OA
ATOM     71  H   UNL     1      -0.310  -1.959   2.433  0.00  0.00    +0.292 HD
ENDBRANCH  69  70
BRANCH  67  72
ATOM     72  C   UNL     1      -1.284   1.197   6.946  0.00  0.00    +0.015 C 
ATOM     73  C   UNL     1      -0.694   1.635   8.070  0.00  0.00    +0.092 C 
BRANCH  73  74
ATOM     74  C   UNL     1      -1.437   2.157   9.230  0.00  0.00    +0.330 C 
ATOM     75  O   UNL     1      -1.009   3.069   9.917  0.00  0.00    -0.246 OA
BRANCH  74  76
ATOM     76  O   UNL     1      -2.589   1.510   9.482  0.00  0.00    -0.478 OA
ATOM     77  H   UNL     1      -2.702   0.690   8.967  0.00  0.00    +0.295 HD
ENDBRANCH  74  76
ENDBRANCH  73  74
ENDBRANCH  67  72
ENDBRANCH  63  64
ENDBRANCH  54  63
ENDBRANCH  51  57
ENDBRANCH  50  51
ENDBRANCH   1  50
TORSDOF 26
