REMARK  Name = opt43.xyz
REMARK  28 active torsions:
REMARK  status: ('A' for Active; 'I' for Inactive)
REMARK    1  A    between atoms: C_1  and  O_2
REMARK    2  A    between atoms: O_2  and  C_3
REMARK    3  A    between atoms: C_5  and  C_10
REMARK    4  A    between atoms: C_8  and  O_9
REMARK    5  A    between atoms: C_11  and  O_33
REMARK    6  A    between atoms: C_14  and  O_15
REMARK    7  A    between atoms: O_15  and  C_16
REMARK    8  A    between atoms: C_18  and  C_19
REMARK    9  A    between atoms: C_19  and  O_20
REMARK   10  A    between atoms: C_21  and  O_22
REMARK   11  A    between atoms: C_23  and  O_24
REMARK   12  A    between atoms: C_25  and  O_26
REMARK   13  A    between atoms: C_28  and  O_29
REMARK   14  A    between atoms: O_33  and  C_34
REMARK   15  A    between atoms: C_36  and  C_37
REMARK   16  A    between atoms: C_37  and  O_38
REMARK   17  A    between atoms: O_38  and  C_39
REMARK   18  A    between atoms: C_41  and  C_42
REMARK   19  A    between atoms: C_43  and  O_44
REMARK   20  A    between atoms: O_44  and  C_45
REMARK   21  A    between atoms: C_48  and  C_49
REMARK   22  A    between atoms: C_50  and  C_51
REMARK   23  A    between atoms: C_51  and  O_52
REMARK   24  A    between atoms: C_56  and  O_57
REMARK   25  A    between atoms: C_58  and  O_59
REMARK   26  A    between atoms: C_60  and  O_61
REMARK   27  A    between atoms: C_62  and  O_63
REMARK   28  A    between atoms: C_64  and  O_65
REMARK                            x       y       z     vdW  Elec       q    Type
REMARK                         _______ _______ _______ _____ _____    ______ ____
ROOT
ATOM      1  O   UNL     1       1.755   8.460  -2.253  0.00  0.00    -0.461 OA
ENDROOT
BRANCH   1  11
ATOM      2  C   UNL     1       1.029   6.808  -0.729  0.00  0.00    +0.173 C 
ATOM      3  O   UNL     1       1.159   5.679   0.058  0.00  0.00    -0.452 OA
ATOM      4  C   UNL     1       2.299   4.925  -0.052  0.00  0.00    +0.139 A 
ATOM      5  C   UNL     1       2.334   3.746   0.692  0.00  0.00    +0.092 A 
ATOM      6  C   UNL     1       3.444   2.919   0.605  0.00  0.00    +0.124 A 
ATOM      7  C   UNL     1       4.510   3.245  -0.226  0.00  0.00    +0.091 A 
ATOM      8  C   UNL     1       4.447   4.405  -1.008  0.00  0.00    +0.135 A 
ATOM      9  C   UNL     1       3.361   5.283  -0.887  0.00  0.00    +0.044 A 
ATOM     10  C   UNL     1       3.305   6.571  -1.664  0.00  0.00    +0.120 C 
ATOM     11  C   UNL     1       1.991   7.298  -1.537  0.00  0.00    +0.148 C 
BRANCH   2  16
ATOM     12  C   UNL     1      -2.645   7.364  -1.341  0.00  0.00    +0.162 A 
ATOM     13  C   UNL     1      -2.908   8.384  -0.417  0.00  0.00    +0.158 A 
ATOM     14  C   UNL     1      -1.895   8.916   0.383  0.00  0.00    +0.050 A 
ATOM     15  C   UNL     1      -0.595   8.419   0.272  0.00  0.00    +0.015 A 
ATOM     16  C   UNL     1      -0.314   7.397  -0.638  0.00  0.00    +0.024 A 
ATOM     17  C   UNL     1      -1.339   6.878  -1.446  0.00  0.00    +0.061 A 
BRANCH  13  18
ATOM     18  O   UNL     1      -4.188   8.858  -0.294  0.00  0.00    -0.503 OA
ATOM     19  H   UNL     1      -4.221   9.502   0.429  0.00  0.00    +0.292 HD
ENDBRANCH  13  18
BRANCH  12  21
ATOM     20  C   UNL     1      -3.473   5.852  -2.989  0.00  0.00    +0.277 C 
ATOM     21  O   UNL     1      -3.713   6.910  -2.071  0.00  0.00    -0.491 OA
ENDBRANCH  12  21
ENDBRANCH   2  16
BRANCH   6  22
ATOM     22  O   UNL     1       3.440   1.772   1.344  0.00  0.00    -0.507 OA
ATOM     23  H   UNL     1       4.239   1.260   1.135  0.00  0.00    +0.292 HD
ENDBRANCH   6  22
BRANCH   8  24
ATOM     24  O   UNL     1       5.434   4.731  -1.908  0.00  0.00    -0.460 OA
BRANCH  24  25
ATOM     25  C   UNL     1       5.732   3.698  -2.894  0.00  0.00    +0.339 C 
ATOM     26  C   UNL     1       7.216   3.272  -2.709  0.00  0.00    +0.214 C 
ATOM     27  C   UNL     1       7.532   1.847  -3.165  0.00  0.00    +0.180 C 
ATOM     28  C   UNL     1       6.450   1.272  -4.064  0.00  0.00    +0.177 C 
ATOM     29  C   UNL     1       5.119   1.365  -3.320  0.00  0.00    +0.179 C 
ATOM     30  O   UNL     1       4.726   2.693  -2.994  0.00  0.00    -0.331 OA
BRANCH  28  31
ATOM     31  O   UNL     1       6.423   1.995  -5.300  0.00  0.00    -0.386 OA
ATOM     32  H   UNL     1       7.358   2.036  -5.591  0.00  0.00    +0.210 HD
ENDBRANCH  28  31
BRANCH  27  33
ATOM     33  O   UNL     1       8.769   1.823  -3.900  0.00  0.00    -0.386 OA
ATOM     34  H   UNL     1       9.368   1.215  -3.427  0.00  0.00    +0.210 HD
ENDBRANCH  27  33
BRANCH  26  35
ATOM     35  O   UNL     1       7.636   3.387  -1.331  0.00  0.00    -0.383 OA
ATOM     36  H   UNL     1       7.325   4.265  -1.034  0.00  0.00    +0.210 HD
ENDBRANCH  26  35
BRANCH  29  37
ATOM     37  C   UNL     1       3.976   0.712  -4.102  0.00  0.00    +0.190 C 
BRANCH  37  38
ATOM     38  O   UNL     1       4.248  -0.665  -4.346  0.00  0.00    -0.392 OA
ATOM     39  H   UNL     1       4.491  -0.741  -5.286  0.00  0.00    +0.210 HD
ENDBRANCH  37  38
ENDBRANCH  29  37
ENDBRANCH  24  25
ENDBRANCH   8  24
ENDBRANCH   1  11
BRANCH   1  40
ATOM     40  C   UNL     1       2.668   8.894  -3.267  0.00  0.00    +0.339 C 
ATOM     41  O   UNL     1       3.679   9.772  -2.733  0.00  0.00    -0.331 OA
ATOM     42  C   UNL     1       3.118  10.947  -2.112  0.00  0.00    +0.179 C 
ATOM     43  C   UNL     1       2.313  11.765  -3.139  0.00  0.00    +0.177 C 
ATOM     44  C   UNL     1       1.247  10.889  -3.811  0.00  0.00    +0.180 C 
ATOM     45  C   UNL     1       1.883   9.617  -4.378  0.00  0.00    +0.214 C 
BRANCH  45  46
ATOM     46  O   UNL     1       0.882   8.779  -4.967  0.00  0.00    -0.383 OA
ATOM     47  H   UNL     1       0.244   9.389  -5.389  0.00  0.00    +0.210 HD
ENDBRANCH  45  46
BRANCH  43  48
ATOM     48  O   UNL     1       3.163  12.287  -4.181  0.00  0.00    -0.386 OA
ATOM     49  H   UNL     1       3.893  11.655  -4.321  0.00  0.00    +0.210 HD
ENDBRANCH  43  48
BRANCH  44  50
ATOM     50  O   UNL     1       0.627  11.604  -4.893  0.00  0.00    -0.386 OA
ATOM     51  H   UNL     1       1.305  12.232  -5.222  0.00  0.00    +0.210 HD
ENDBRANCH  44  50
BRANCH  42  52
ATOM     52  C   UNL     1       4.261  11.770  -1.495  0.00  0.00    +0.197 C 
BRANCH  52  53
ATOM     53  O   UNL     1       3.713  12.869  -0.765  0.00  0.00    -0.346 OA
BRANCH  53  54
ATOM     54  C   UNL     1       4.728  13.665  -0.134  0.00  0.00    +0.282 C 
ATOM     55  O   UNL     1       5.411  12.937   0.884  0.00  0.00    -0.342 OA
ATOM     56  C   UNL     1       4.554  12.506   1.953  0.00  0.00    +0.161 C 
ATOM     57  C   UNL     1       5.427  11.725   2.930  0.00  0.00    +0.042 C 
ATOM     58  C   UNL     1       3.815  13.682   2.635  0.00  0.00    +0.233 C 
ATOM     59  C   UNL     1       3.084  14.506   1.559  0.00  0.00    +0.191 C 
ATOM     60  C   UNL     1       4.065  14.928   0.452  0.00  0.00    +0.202 C 
BRANCH  60  61
ATOM     61  O   UNL     1       3.386  15.671  -0.569  0.00  0.00    -0.384 OA
ATOM     62  H   UNL     1       2.743  15.062  -0.977  0.00  0.00    +0.210 HD
ENDBRANCH  60  61
BRANCH  59  63
ATOM     63  O   UNL     1       2.422  15.642   2.130  0.00  0.00    -0.385 OA
ATOM     64  H   UNL     1       3.106  16.318   2.299  0.00  0.00    +0.210 HD
ENDBRANCH  59  63
BRANCH  58  65
ATOM     65  O   UNL     1       4.784  14.512   3.304  0.00  0.00    -0.484 OA
BRANCH  65  66
ATOM     66  C   UNL     1       4.475  15.044   4.524  0.00  0.00    +0.121 A 
ATOM     67  C   UNL     1       5.555  15.604   5.208  0.00  0.00    +0.046 A 
ATOM     68  C   UNL     1       5.378  16.209   6.458  0.00  0.00    +0.011 A 
ATOM     69  C   UNL     1       4.111  16.259   7.048  0.00  0.00    -0.025 A 
ATOM     70  C   UNL     1       3.027  15.717   6.349  0.00  0.00    +0.011 A 
ATOM     71  C   UNL     1       3.207  15.112   5.099  0.00  0.00    +0.046 A 
BRANCH  69  72
ATOM     72  C   UNL     1       3.858  16.920   8.336  0.00  0.00    +0.015 C 
ATOM     73  C   UNL     1       4.703  16.868   9.378  0.00  0.00    +0.092 C 
BRANCH  73  74
ATOM     74  C   UNL     1       4.452  17.556  10.655  0.00  0.00    +0.330 C 
ATOM     75  O   UNL     1       5.354  18.045  11.318  0.00  0.00    -0.246 OA
BRANCH  74  76
ATOM     76  O   UNL     1       3.165  17.544  11.045  0.00  0.00    -0.478 OA
ATOM     77  H   UNL     1       2.593  16.966  10.507  0.00  0.00    +0.295 HD
ENDBRANCH  74  76
ENDBRANCH  73  74
ENDBRANCH  69  72
ENDBRANCH  65  66
ENDBRANCH  58  65
ENDBRANCH  53  54
ENDBRANCH  52  53
ENDBRANCH  42  52
ENDBRANCH   1  40
TORSDOF 26
