REMARK  Name = opt50.xyz
REMARK  9 active torsions:
REMARK  status: ('A' for Active; 'I' for Inactive)
REMARK    1  A    between atoms: C_1  and  C_2
REMARK    2  A    between atoms: C_3  and  C_4
REMARK    3  A    between atoms: C_8  and  O_10
REMARK    4  A    between atoms: O_10  and  C_11
REMARK    5  A    between atoms: C_13  and  C_16
REMARK    6  A    between atoms: C_14  and  C_15
REMARK    7  A    between atoms: C_18  and  O_23
REMARK    8  A    between atoms: C_19  and  O_22
REMARK    9  A    between atoms: O_23  and  C_24
REMARK                            x       y       z     vdW  Elec       q    Type
REMARK                         _______ _______ _______ _____ _____    ______ ____
ROOT
ATOM      1  C   UNL     1       4.614   0.798  -0.713  0.00  0.00    -0.021 A 
ATOM      2  C   UNL     1       5.467  -0.329  -0.673  0.00  0.00    +0.057 A 
ATOM      3  C   UNL     1       6.858  -0.187  -0.718  0.00  0.00    +0.162 A 
ATOM      4  C   UNL     1       7.366   1.102  -0.807  0.00  0.00    +0.166 A 
ATOM      5  C   UNL     1       6.545   2.219  -0.854  0.00  0.00    +0.005 A 
ATOM      6  C   UNL     1       7.377   3.442  -1.022  0.00  0.00    +0.065 C 
ATOM      7  C   UNL     1       6.942   4.642  -0.194  0.00  0.00    +0.016 C 
ATOM      8  C   UNL     1       8.782   2.852  -0.731  0.00  0.00    +0.211 C 
ATOM      9  O   UNL     1       8.707   1.404  -0.857  0.00  0.00    -0.480 OA
ATOM     10  C   UNL     1       5.166   2.082  -0.822  0.00  0.00    +0.015 A 
ENDROOT
BRANCH   8  11
ATOM     11  C   UNL     1       9.429   3.229   0.595  0.00  0.00    -0.003 A 
ATOM     12  C   UNL     1       9.179   2.502   1.776  0.00  0.00    +0.056 A 
ATOM     13  C   UNL     1       9.770   2.877   2.984  0.00  0.00    +0.162 A 
ATOM     14  C   UNL     1      10.609   3.995   3.005  0.00  0.00    +0.158 A 
ATOM     15  C   UNL     1      10.872   4.729   1.857  0.00  0.00    +0.049 A 
ATOM     16  C   UNL     1      10.283   4.345   0.653  0.00  0.00    +0.011 A 
BRANCH  13  17
ATOM     17  O   UNL     1       9.609   2.250   4.194  0.00  0.00    -0.491 OA
ATOM     18  C   UNL     1       8.830   1.058   4.190  0.00  0.00    +0.277 C 
ENDBRANCH  13  17
BRANCH  14  19
ATOM     19  O   UNL     1      11.199   4.391   4.175  0.00  0.00    -0.503 OA
ATOM     20  H   UNL     1      10.892   3.743   4.838  0.00  0.00    +0.292 HD
ENDBRANCH  14  19
ENDBRANCH   8  11
BRANCH   1  23
ATOM     21  C   UNL     1       0.984  -0.351   0.020  0.00  0.00    +0.035 C 
ATOM     22  C   UNL     1       2.474  -0.230   0.027  0.00  0.00    -0.030 C 
ATOM     23  C   UNL     1       3.150   0.662  -0.714  0.00  0.00    +0.003 C 
ENDBRANCH   1  23
BRANCH   3  24
ATOM     24  O   UNL     1       7.771  -1.201  -0.675  0.00  0.00    -0.491 OA
ATOM     25  C   UNL     1       7.265  -2.528  -0.648  0.00  0.00    +0.277 C 
ENDBRANCH   3  24
TORSDOF 5
