REMARK  Name = opt59.xyz
REMARK  4 active torsions:
REMARK  status: ('A' for Active; 'I' for Inactive)
REMARK    1  A    between atoms: C_1  and  O_2
REMARK    2  A    between atoms: O_2  and  C_3
REMARK    3  A    between atoms: C_4  and  O_21
REMARK    4  A    between atoms: O_21  and  C_22
REMARK                            x       y       z     vdW  Elec       q    Type
REMARK                         _______ _______ _______ _____ _____    ______ ____
ROOT
ATOM      1  C   UNL     1       3.040  -0.385  -0.993  0.00  0.00    +0.163 A 
ATOM      2  C   UNL     1       4.207  -1.068  -0.574  0.00  0.00    +0.170 A 
ATOM      3  C   UNL     1       5.016  -1.796  -1.492  0.00  0.00    +0.038 A 
ATOM      4  C   UNL     1       6.256  -2.575  -1.146  0.00  0.00    -0.003 A 
ATOM      5  C   UNL     1       6.749  -2.762   0.161  0.00  0.00    +0.009 A 
ATOM      6  C   UNL     1       7.909  -3.503   0.437  0.00  0.00    +0.001 A 
ATOM      7  C   UNL     1       8.625  -4.093  -0.592  0.00  0.00    +0.001 A 
ATOM      8  C   UNL     1       8.173  -3.945  -1.894  0.00  0.00    +0.012 A 
ATOM      9  C   UNL     1       7.005  -3.204  -2.165  0.00  0.00    +0.032 A 
ATOM     10  C   UNL     1       6.571  -3.128  -3.577  0.00  0.00    +0.212 C 
ATOM     11  C   UNL     1       5.309  -2.419  -3.887  0.00  0.00    +0.119 A 
ATOM     12  N   UNL     1       4.945  -2.432  -5.200  0.00  0.00    -0.251 NA
ATOM     13  C   UNL     1       3.822  -1.781  -5.533  0.00  0.00    +0.112 A 
ATOM     14  C   UNL     1       3.040  -1.112  -4.614  0.00  0.00    +0.028 A 
ATOM     15  C   UNL     1       3.427  -1.110  -3.268  0.00  0.00    -0.010 A 
ATOM     16  O   UNL     1       7.248  -3.653  -4.456  0.00  0.00    -0.285 OA
ATOM     17  C   UNL     1       4.600  -1.788  -2.859  0.00  0.00    +0.023 A 
ATOM     18  C   UNL     1       2.660  -0.419  -2.331  0.00  0.00    +0.058 A 
ENDROOT
BRANCH   1  20
ATOM     19  C   UNL     1       0.966   0.535  -0.275  0.00  0.00    +0.277 C 
ATOM     20  O   UNL     1       2.362   0.358  -0.058  0.00  0.00    -0.491 OA
ENDBRANCH   1  20
BRANCH   2  21
ATOM     21  O   UNL     1       4.632  -0.941   0.729  0.00  0.00    -0.491 OA
ATOM     22  C   UNL     1       3.667  -1.332   1.707  0.00  0.00    +0.277 C 
ENDBRANCH   2  21
TORSDOF 2
