REMARK  Name = opt52.xyz
REMARK  7 active torsions:
REMARK  status: ('A' for Active; 'I' for Inactive)
REMARK    1  A    between atoms: C_1  and  O_2
REMARK    2  A    between atoms: O_2  and  C_3
REMARK    3  A    between atoms: C_4  and  O_24
REMARK    4  A    between atoms: C_5  and  O_22
REMARK    5  A    between atoms: C_10  and  O_21
REMARK    6  A    between atoms: O_22  and  C_23
REMARK    7  A    between atoms: O_24  and  C_25
REMARK                            x       y       z     vdW  Elec       q    Type
REMARK                         _______ _______ _______ _____ _____    ______ ____
ROOT
ATOM      1  C   UNL     1       3.562  -1.153   0.879  0.00  0.00    +0.170 C 
ATOM      2  C   UNL     1       3.187  -1.974   1.969  0.00  0.00    +0.204 C 
ATOM      3  C   UNL     1       4.070  -2.226   3.048  0.00  0.00    +0.170 C 
ATOM      4  C   UNL     1       5.310  -1.583   3.016  0.00  0.00    +0.020 C 
ATOM      5  C   UNL     1       6.512  -1.556   3.976  0.00  0.00    -0.026 C 
ATOM      6  C   UNL     1       6.556  -2.088   5.197  0.00  0.00    +0.057 C 
ATOM      7  C   UNL     1       7.608  -1.966   6.175  0.00  0.00    +0.031 C 
ATOM      8  C   UNL     1       8.882  -1.558   6.056  0.00  0.00    +0.156 C 
ATOM      9  C   UNL     1       9.567  -1.073   4.809  0.00  0.00    +0.205 C 
ATOM     10  O   UNL     1      10.800  -1.043   4.756  0.00  0.00    -0.288 OA
ATOM     11  C   UNL     1       8.827  -0.556   3.646  0.00  0.00    +0.110 C 
ATOM     12  C   UNL     1       7.556  -0.769   3.307  0.00  0.00    -0.011 C 
ATOM     13  C   UNL     1       6.941  -0.262   2.012  0.00  0.00    +0.051 C 
ATOM     14  N   UNL     1       7.476   0.529   1.011  0.00  0.00    -0.225 NA
ATOM     15  C   UNL     1       6.657   0.763  -0.045  0.00  0.00    +0.098 C 
ATOM     16  C   UNL     1       5.363   0.263  -0.183  0.00  0.00    +0.026 C 
ATOM     17  C   UNL     1       5.646  -0.780   1.916  0.00  0.00    +0.087 C 
ATOM     18  C   UNL     1       4.832  -0.547   0.837  0.00  0.00    +0.017 C 
ENDROOT
BRANCH   1  20
ATOM     19  C   UNL     1       1.713  -0.021   0.077  0.00  0.00    +0.277 C 
ATOM     20  O   UNL     1       2.722  -0.993  -0.196  0.00  0.00    -0.491 OA
ENDBRANCH   1  20
BRANCH   3  21
ATOM     21  O   UNL     1       3.734  -3.053   4.090  0.00  0.00    -0.491 OA
ATOM     22  C   UNL     1       3.706  -4.419   3.667  0.00  0.00    +0.277 C 
ENDBRANCH   3  21
BRANCH   8  23
ATOM     23  O   UNL     1       9.701  -1.578   7.189  0.00  0.00    -0.504 OA
ATOM     24  H   UNL     1       9.209  -1.924   7.948  0.00  0.00    +0.292 HD
ENDBRANCH   8  23
BRANCH   2  25
ATOM     25  O   UNL     1       1.958  -2.591   1.897  0.00  0.00    -0.488 OA
ATOM     26  C   UNL     1       1.064  -2.141   2.914  0.00  0.00    +0.277 C 
ENDBRANCH   2  25
TORSDOF 4
