REMARK  Name = opt54.xyz
REMARK  10 active torsions:
REMARK  status: ('A' for Active; 'I' for Inactive)
REMARK    1  A    between atoms: C_1  and  O_2
REMARK    2  A    between atoms: O_2  and  C_3
REMARK    3  A    between atoms: C_4  and  O_25
REMARK    4  A    between atoms: C_10  and  O_23
REMARK    5  A    between atoms: C_11  and  O_21
REMARK    6  A    between atoms: C_12  and  O_19
REMARK    7  A    between atoms: O_19  and  C_20
REMARK    8  A    between atoms: O_21  and  C_22
REMARK    9  A    between atoms: O_23  and  C_24
REMARK   10  A    between atoms: O_25  and  C_26
REMARK                            x       y       z     vdW  Elec       q    Type
REMARK                         _______ _______ _______ _____ _____    ______ ____
ROOT
ATOM      1  C   UNL     1       3.283   0.077  -1.127  0.00  0.00    +0.162 A 
ATOM      2  C   UNL     1       4.359  -0.778  -1.432  0.00  0.00    +0.171 A 
ATOM      3  C   UNL     1       5.046  -0.495  -2.619  0.00  0.00    +0.048 A 
ATOM      4  C   UNL     1       6.221  -1.155  -3.269  0.00  0.00    +0.058 C 
ATOM      5  N   UNL     1       6.980  -2.221  -2.833  0.00  0.00    -0.225 NA
ATOM      6  C   UNL     1       8.013  -2.600  -3.589  0.00  0.00    +0.098 C 
ATOM      7  C   UNL     1       8.363  -1.994  -4.782  0.00  0.00    +0.026 C 
ATOM      8  C   UNL     1       7.611  -0.903  -5.279  0.00  0.00    +0.017 C 
ATOM      9  C   UNL     1       7.798  -0.135  -6.463  0.00  0.00    +0.170 C 
ATOM     10  C   UNL     1       6.909   0.952  -6.728  0.00  0.00    +0.204 C 
ATOM     11  C   UNL     1       5.828   1.322  -5.838  0.00  0.00    +0.170 C 
ATOM     12  C   UNL     1       5.614   0.569  -4.684  0.00  0.00    +0.024 C 
ATOM     13  C   UNL     1       6.527  -0.503  -4.479  0.00  0.00    +0.088 C 
ATOM     14  C   UNL     1       4.692   0.567  -3.515  0.00  0.00    -0.005 A 
ATOM     15  C   UNL     1       3.601   1.348  -3.173  0.00  0.00    +0.013 A 
ATOM     16  C   UNL     1       2.898   1.102  -1.992  0.00  0.00    +0.050 A 
ENDROOT
BRANCH   1  18
ATOM     17  C   UNL     1       3.217  -0.001   1.211  0.00  0.00    +0.277 C 
ATOM     18  O   UNL     1       2.484  -0.046  -0.013  0.00  0.00    -0.491 OA
ENDBRANCH   1  18
BRANCH   2  19
ATOM     19  O   UNL     1       4.495  -1.797  -0.540  0.00  0.00    -0.491 OA
ATOM     20  C   UNL     1       5.697  -2.525  -0.425  0.00  0.00    +0.277 C 
ENDBRANCH   2  19
BRANCH  11  21
ATOM     21  O   UNL     1       5.222   2.458  -6.292  0.00  0.00    -0.491 OA
ATOM     22  C   UNL     1       3.950   2.897  -5.906  0.00  0.00    +0.277 C 
ENDBRANCH  11  21
BRANCH  10  23
ATOM     23  O   UNL     1       6.968   1.788  -7.836  0.00  0.00    -0.488 OA
ATOM     24  C   UNL     1       7.860   1.563  -8.911  0.00  0.00    +0.277 C 
ENDBRANCH  10  23
BRANCH   9  25
ATOM     25  O   UNL     1       8.783  -0.297  -7.395  0.00  0.00    -0.491 OA
ATOM     26  C   UNL     1       9.740  -1.332  -7.383  0.00  0.00    +0.277 C 
ENDBRANCH   9  25
TORSDOF 5
