REMARK  Name = opt58.xyz
REMARK  8 active torsions:
REMARK  status: ('A' for Active; 'I' for Inactive)
REMARK    1  A    between atoms: C_10  and  O_11
REMARK    2  A    between atoms: O_11  and  C_12
REMARK    3  A    between atoms: C_13  and  O_14
REMARK    4  A    between atoms: O_14  and  C_15
REMARK    5  A    between atoms: C_16  and  O_17
REMARK    6  A    between atoms: O_17  and  C_18
REMARK    7  A    between atoms: C_24  and  O_25
REMARK    8  A    between atoms: O_25  and  C_26
REMARK                            x       y       z     vdW  Elec       q    Type
REMARK                         _______ _______ _______ _____ _____    ______ ____
ROOT
ATOM      1  O   UNL     1       1.250  -0.056   0.261  0.00  0.00    -0.285 OA
ATOM      2  C   UNL     1       2.474  -0.020   0.187  0.00  0.00    +0.212 C 
ATOM      3  C   UNL     1       3.217   1.261   0.189  0.00  0.00    +0.120 A 
ATOM      4  N   UNL     1       2.411   2.346   0.301  0.00  0.00    -0.247 NA
ATOM      5  C   UNL     1       3.004   3.543   0.317  0.00  0.00    +0.157 A 
ATOM      6  C   UNL     1       4.373   3.723   0.201  0.00  0.00    +0.149 A 
ATOM      7  C   UNL     1       5.224   2.574   0.059  0.00  0.00    +0.073 A 
ATOM      8  C   UNL     1       6.643   2.655  -0.118  0.00  0.00    +0.177 A 
ATOM      9  C   UNL     1       7.420   1.487  -0.140  0.00  0.00    +0.205 A 
ATOM     10  C   UNL     1       6.792   0.217  -0.123  0.00  0.00    +0.174 A 
ATOM     11  C   UNL     1       5.382   0.072  -0.030  0.00  0.00    +0.038 A 
ATOM     12  C   UNL     1       4.641  -1.247  -0.025  0.00  0.00    -0.003 A 
ATOM     13  C   UNL     1       5.241  -2.518  -0.127  0.00  0.00    +0.009 A 
ATOM     14  C   UNL     1       4.514  -3.720  -0.073  0.00  0.00    +0.001 A 
ATOM     15  C   UNL     1       3.137  -3.700   0.060  0.00  0.00    +0.001 A 
ATOM     16  C   UNL     1       2.496  -2.474   0.136  0.00  0.00    +0.012 A 
ATOM     17  C   UNL     1       4.616   1.279   0.079  0.00  0.00    +0.030 A 
ATOM     18  C   UNL     1       3.238  -1.275   0.097  0.00  0.00    +0.032 A 
ENDROOT
BRANCH   6  19
ATOM     19  O   UNL     1       4.953   4.965   0.295  0.00  0.00    -0.493 OA
ATOM     20  C   UNL     1       4.130   6.107   0.091  0.00  0.00    +0.277 C 
ENDBRANCH   6  19
BRANCH  10  21
ATOM     21  O   UNL     1       7.572  -0.887  -0.389  0.00  0.00    -0.491 OA
ATOM     22  C   UNL     1       8.384  -1.299   0.710  0.00  0.00    +0.277 C 
ENDBRANCH  10  21
BRANCH   9  23
ATOM     23  O   UNL     1       8.784   1.528  -0.317  0.00  0.00    -0.488 OA
ATOM     24  C   UNL     1       9.485   1.683   0.922  0.00  0.00    +0.277 C 
ENDBRANCH   9  23
BRANCH   8  25
ATOM     25  O   UNL     1       7.091   3.926  -0.373  0.00  0.00    -0.491 OA
ATOM     26  C   UNL     1       8.450   4.300  -0.360  0.00  0.00    +0.277 C 
ENDBRANCH   8  25
TORSDOF 4
