REMARK  Name = opt5.xyz
REMARK  11 active torsions:
REMARK  status: ('A' for Active; 'I' for Inactive)
REMARK    1  A    between atoms: C_1  and  O_2
REMARK    2  A    between atoms: O_2  and  C_3
REMARK    3  A    between atoms: C_5  and  O_24
REMARK    4  A    between atoms: C_6  and  C_11
REMARK    5  A    between atoms: C_7  and  O_9
REMARK    6  A    between atoms: O_9  and  C_10
REMARK    7  A    between atoms: C_11  and  C_13
REMARK    8  A    between atoms: C_14  and  C_15
REMARK    9  A    between atoms: C_17  and  O_22
REMARK   10  A    between atoms: C_18  and  O_21
REMARK   11  A    between atoms: O_22  and  C_23
REMARK                            x       y       z     vdW  Elec       q    Type
REMARK                         _______ _______ _______ _____ _____    ______ ____
ROOT
ATOM      1  C   UNL     1       5.419   5.013  -0.706  0.00  0.00    +0.193 C 
ATOM      2  O   UNL     1       6.603   4.936  -1.016  0.00  0.00    -0.287 OA
ENDROOT
BRANCH   1   6
ATOM      3  C   UNL     1       3.203   1.409   0.096  0.00  0.00    +0.127 A 
ATOM      4  C   UNL     1       4.444   1.629   0.694  0.00  0.00    +0.092 A 
ATOM      5  C   UNL     1       5.153   2.817   0.476  0.00  0.00    +0.138 A 
ATOM      6  C   UNL     1       4.634   3.795  -0.386  0.00  0.00    +0.105 A 
ATOM      7  C   UNL     1       3.392   3.558  -0.999  0.00  0.00    +0.135 A 
ATOM      8  C   UNL     1       2.673   2.381  -0.751  0.00  0.00    +0.092 A 
BRANCH   3  10
ATOM      9  C   UNL     1       1.371  -0.086  -0.196  0.00  0.00    +0.277 C 
ATOM     10  O   UNL     1       2.619   0.216   0.416  0.00  0.00    -0.495 OA
ENDBRANCH   3  10
BRANCH   5  11
ATOM     11  O   UNL     1       6.364   2.885   1.113  0.00  0.00    -0.494 OA
ATOM     12  C   UNL     1       6.459   3.968   2.036  0.00  0.00    +0.277 C 
ENDBRANCH   5  11
BRANCH   7  13
ATOM     13  O   UNL     1       2.870   4.471  -1.878  0.00  0.00    -0.506 OA
ATOM     14  H   UNL     1       2.108   4.084  -2.341  0.00  0.00    +0.292 HD
ENDBRANCH   7  13
ENDBRANCH   1   6
BRANCH   1  15
ATOM     15  C   UNL     1       4.720   6.324  -0.586  0.00  0.00    +0.052 C 
ATOM     16  C   UNL     1       5.391   7.461  -0.822  0.00  0.00    +0.012 C 
BRANCH  16  17
ATOM     17  C   UNL     1       4.736   8.770  -0.779  0.00  0.00    -0.021 A 
ATOM     18  C   UNL     1       5.147   9.726   0.156  0.00  0.00    +0.057 A 
ATOM     19  C   UNL     1       4.530  10.976   0.176  0.00  0.00    +0.162 A 
ATOM     20  C   UNL     1       3.550  11.295  -0.765  0.00  0.00    +0.158 A 
ATOM     21  C   UNL     1       3.131  10.353  -1.693  0.00  0.00    +0.050 A 
ATOM     22  C   UNL     1       3.722   9.087  -1.697  0.00  0.00    +0.012 A 
BRANCH  19  23
ATOM     23  O   UNL     1       4.926  11.927   1.080  0.00  0.00    -0.491 OA
ATOM     24  C   UNL     1       4.192  11.771   2.296  0.00  0.00    +0.277 C 
ENDBRANCH  19  23
BRANCH  20  25
ATOM     25  O   UNL     1       2.994  12.541  -0.798  0.00  0.00    -0.503 OA
ATOM     26  H   UNL     1       3.536  13.084  -0.195  0.00  0.00    +0.292 HD
ENDBRANCH  20  25
ENDBRANCH  16  17
ENDBRANCH   1  15
TORSDOF 8
