REMARK  Name = opt55.xyz
REMARK  7 active torsions:
REMARK  status: ('A' for Active; 'I' for Inactive)
REMARK    1  A    between atoms: C_1  and  O_2
REMARK    2  A    between atoms: O_2  and  C_3
REMARK    3  A    between atoms: C_4  and  O_22
REMARK    4  A    between atoms: C_5  and  O_20
REMARK    5  A    between atoms: C_10  and  O_13
REMARK    6  A    between atoms: O_20  and  C_21
REMARK    7  A    between atoms: O_22  and  C_23
REMARK                            x       y       z     vdW  Elec       q    Type
REMARK                         _______ _______ _______ _____ _____    ______ ____
ROOT
ATOM      1  C   UNL     1       3.070  -0.863  -0.882  0.00  0.00    +0.170 C 
ATOM      2  C   UNL     1       4.160  -1.353  -0.085  0.00  0.00    +0.204 C 
ATOM      3  C   UNL     1       4.898  -2.501  -0.511  0.00  0.00    +0.170 C 
ATOM      4  C   UNL     1       4.534  -3.113  -1.707  0.00  0.00    +0.024 C 
ATOM      5  C   UNL     1       5.043  -4.271  -2.447  0.00  0.00    -0.008 A 
ATOM      6  C   UNL     1       6.068  -5.166  -2.203  0.00  0.00    +0.012 A 
ATOM      7  C   UNL     1       6.303  -6.177  -3.147  0.00  0.00    +0.046 A 
ATOM      8  C   UNL     1       5.519  -6.279  -4.311  0.00  0.00    +0.118 A 
ATOM      9  C   UNL     1       4.483  -5.390  -4.577  0.00  0.00    +0.055 A 
ATOM     10  C   UNL     1       4.282  -4.411  -3.631  0.00  0.00    +0.006 A 
ATOM     11  C   UNL     1       3.284  -3.310  -3.623  0.00  0.00    +0.055 C 
ATOM     12  N   UNL     1       2.309  -2.964  -4.542  0.00  0.00    -0.225 NA
ATOM     13  C   UNL     1       1.588  -1.859  -4.232  0.00  0.00    +0.098 C 
ATOM     14  C   UNL     1       1.751  -1.087  -3.081  0.00  0.00    +0.026 C 
ATOM     15  C   UNL     1       3.476  -2.568  -2.453  0.00  0.00    +0.088 C 
ATOM     16  C   UNL     1       2.726  -1.461  -2.130  0.00  0.00    +0.017 C 
ENDROOT
BRANCH   1  18
ATOM     17  C   UNL     1       1.037  -0.080  -0.061  0.00  0.00    +0.277 C 
ATOM     18  O   UNL     1       2.361   0.252  -0.491  0.00  0.00    -0.491 OA
ENDBRANCH   1  18
BRANCH   2  19
ATOM     19  O   UNL     1       4.577  -0.806   1.103  0.00  0.00    -0.488 OA
ATOM     20  C   UNL     1       3.944   0.328   1.665  0.00  0.00    +0.277 C 
ENDBRANCH   2  19
BRANCH   3  21
ATOM     21  O   UNL     1       5.947  -3.117   0.118  0.00  0.00    -0.491 OA
ATOM     22  C   UNL     1       6.521  -2.552   1.284  0.00  0.00    +0.277 C 
ENDBRANCH   3  21
BRANCH   8  23
ATOM     23  O   UNL     1       5.817  -7.291  -5.178  0.00  0.00    -0.507 OA
ATOM     24  H   UNL     1       5.209  -7.237  -5.935  0.00  0.00    +0.292 HD
ENDBRANCH   8  23
TORSDOF 4
