REMARK  Name = opt53.xyz
REMARK  8 active torsions:
REMARK  status: ('A' for Active; 'I' for Inactive)
REMARK    1  A    between atoms: C_1  and  O_2
REMARK    2  A    between atoms: O_2  and  C_3
REMARK    3  A    between atoms: C_12  and  O_25
REMARK    4  A    between atoms: C_13  and  O_23
REMARK    5  A    between atoms: C_14  and  O_21
REMARK    6  A    between atoms: O_21  and  C_22
REMARK    7  A    between atoms: O_23  and  C_24
REMARK    8  A    between atoms: O_25  and  C_26
REMARK                            x       y       z     vdW  Elec       q    Type
REMARK                         _______ _______ _______ _____ _____    ______ ____
ROOT
ATOM      1  C   UNL     1       4.636  -0.977  -1.972  0.00  0.00    +0.170 C 
ATOM      2  C   UNL     1       4.990  -0.937  -0.490  0.00  0.00    +0.173 C 
ATOM      3  C   UNL     1       4.929   0.443   0.146  0.00  0.00    +0.077 C 
ATOM      4  C   UNL     1       3.928   1.217  -0.332  0.00  0.00    +0.039 C 
ATOM      5  C   UNL     1       4.125   1.927  -1.599  0.00  0.00    -0.030 C 
ATOM      6  C   UNL     1       3.688   3.321  -2.020  0.00  0.00    +0.020 C 
ATOM      7  C   UNL     1       3.032   4.352  -1.351  0.00  0.00    +0.170 C 
ATOM      8  C   UNL     1       2.751   5.527  -2.095  0.00  0.00    +0.204 C 
ATOM      9  C   UNL     1       3.195   5.673  -3.437  0.00  0.00    +0.170 C 
ATOM     10  C   UNL     1       3.907   4.631  -4.075  0.00  0.00    +0.017 C 
ATOM     11  C   UNL     1       4.435   4.596  -5.380  0.00  0.00    +0.026 C 
ATOM     12  C   UNL     1       5.089   3.441  -5.817  0.00  0.00    +0.098 C 
ATOM     13  N   UNL     1       5.267   2.313  -5.080  0.00  0.00    -0.225 NA
ATOM     14  C   UNL     1       4.745   2.363  -3.799  0.00  0.00    +0.051 C 
ATOM     15  C   UNL     1       4.096   3.500  -3.335  0.00  0.00    +0.087 C 
ATOM     16  C   UNL     1       4.732   1.339  -2.685  0.00  0.00    -0.016 C 
ATOM     17  O   UNL     1       5.343  -1.927   0.136  0.00  0.00    -0.294 OA
ATOM     18  C   UNL     1       5.308  -0.010  -2.643  0.00  0.00    +0.074 C 
ENDROOT
BRANCH   1  20
ATOM     19  C   UNL     1       2.963  -2.572  -1.981  0.00  0.00    +0.195 C 
ATOM     20  O   UNL     1       3.291  -1.211  -2.254  0.00  0.00    -0.365 OA
ENDBRANCH   1  20
BRANCH   7  21
ATOM     21  O   UNL     1       2.658   4.209  -0.039  0.00  0.00    -0.491 OA
ATOM     22  C   UNL     1       3.657   4.777   0.810  0.00  0.00    +0.277 C 
ENDBRANCH   7  21
BRANCH   8  23
ATOM     23  O   UNL     1       2.123   6.608  -1.515  0.00  0.00    -0.488 OA
ATOM     24  C   UNL     1       0.853   6.279  -0.951  0.00  0.00    +0.277 C 
ENDBRANCH   8  23
BRANCH   9  25
ATOM     25  O   UNL     1       3.023   6.824  -4.171  0.00  0.00    -0.491 OA
ATOM     26  C   UNL     1       1.658   7.218  -4.289  0.00  0.00    +0.277 C 
ENDBRANCH   9  25
TORSDOF 4
