REMARK  Name = opt51.xyz
REMARK  8 active torsions:
REMARK  status: ('A' for Active; 'I' for Inactive)
REMARK    1  A    between atoms: C_1  and  O_2
REMARK    2  A    between atoms: O_2  and  C_3
REMARK    3  A    between atoms: C_18  and  O_25
REMARK    4  A    between atoms: C_19  and  O_23
REMARK    5  A    between atoms: C_20  and  O_21
REMARK    6  A    between atoms: O_21  and  C_22
REMARK    7  A    between atoms: O_23  and  C_24
REMARK    8  A    between atoms: O_25  and  C_26
REMARK                            x       y       z     vdW  Elec       q    Type
REMARK                         _______ _______ _______ _____ _____    ______ ____
ROOT
ATOM      1  C   UNL     1       2.283   0.177   1.403  0.00  0.00    +0.185 C 
ATOM      2  C   UNL     1       1.964   1.466   1.566  0.00  0.00    +0.019 C 
ATOM      3  C   UNL     1       2.579   2.675   1.090  0.00  0.00    +0.008 C 
ATOM      4  C   UNL     1       3.675   2.803   0.341  0.00  0.00    -0.012 C 
ATOM      5  C   UNL     1       4.546   1.733  -0.158  0.00  0.00    -0.008 C 
ATOM      6  C   UNL     1       4.479   0.412  -0.009  0.00  0.00    +0.105 C 
ATOM      7  C   UNL     1       5.649   2.421  -0.949  0.00  0.00    +0.052 C 
ATOM      8  C   UNL     1       5.420   3.800  -0.910  0.00  0.00    +0.087 C 
ATOM      9  C   UNL     1       6.232   4.706  -1.540  0.00  0.00    +0.017 C 
ATOM     10  C   UNL     1       5.844   6.061  -1.439  0.00  0.00    +0.170 C 
ATOM     11  C   UNL     1       4.708   6.435  -0.679  0.00  0.00    +0.204 C 
ATOM     12  C   UNL     1       3.898   5.466  -0.030  0.00  0.00    +0.170 C 
ATOM     13  C   UNL     1       7.345   4.173  -2.221  0.00  0.00    +0.026 C 
ATOM     14  C   UNL     1       7.537   2.792  -2.235  0.00  0.00    +0.098 C 
ATOM     15  N   UNL     1       6.729   1.888  -1.630  0.00  0.00    -0.225 NA
ATOM     16  C   UNL     1       4.275   4.127  -0.171  0.00  0.00    +0.023 C 
ATOM     17  C   UNL     1       3.483  -0.405   0.709  0.00  0.00    +0.181 C 
ATOM     18  O   UNL     1       3.660  -1.625   0.712  0.00  0.00    -0.293 OA
ENDROOT
BRANCH   1  20
ATOM     19  C   UNL     1       0.573  -1.351   1.036  0.00  0.00    +0.196 C 
ATOM     20  O   UNL     1       1.428  -0.752   2.010  0.00  0.00    -0.361 OA
ENDBRANCH   1  20
BRANCH  12  21
ATOM     21  O   UNL     1       2.754   5.783   0.656  0.00  0.00    -0.491 OA
ATOM     22  C   UNL     1       2.993   6.660   1.755  0.00  0.00    +0.277 C 
ENDBRANCH  12  21
BRANCH  11  23
ATOM     23  O   UNL     1       4.269   7.741  -0.625  0.00  0.00    -0.488 OA
ATOM     24  C   UNL     1       5.257   8.660  -0.163  0.00  0.00    +0.277 C 
ENDBRANCH  11  23
BRANCH  10  25
ATOM     25  O   UNL     1       6.602   7.025  -2.058  0.00  0.00    -0.491 OA
ATOM     26  C   UNL     1       6.316   7.098  -3.456  0.00  0.00    +0.277 C 
ENDBRANCH  10  25
TORSDOF 4
