REMARK  Name = opt56.xyz
REMARK  7 active torsions:
REMARK  status: ('A' for Active; 'I' for Inactive)
REMARK    1  A    between atoms: C_1  and  O_2
REMARK    2  A    between atoms: O_2  and  C_3
REMARK    3  A    between atoms: C_13  and  O_25
REMARK    4  A    between atoms: C_14  and  O_23
REMARK    5  A    between atoms: C_15  and  O_22
REMARK    6  A    between atoms: O_23  and  C_24
REMARK    7  A    between atoms: O_25  and  C_26
REMARK                            x       y       z     vdW  Elec       q    Type
REMARK                         _______ _______ _______ _____ _____    ______ ____
ROOT
ATOM      1  C   UNL     1       3.016  -0.771   0.942  0.00  0.00    +0.152 A 
ATOM      2  C   UNL     1       2.732  -2.004   1.537  0.00  0.00    +0.093 A 
ATOM      3  C   UNL     1       3.438  -2.469   2.656  0.00  0.00    +0.026 A 
ATOM      4  C   UNL     1       3.088  -3.717   3.220  0.00  0.00    +0.060 A 
ATOM      5  C   UNL     1       3.821  -4.227   4.289  0.00  0.00    +0.172 A 
ATOM      6  C   UNL     1       4.874  -3.517   4.865  0.00  0.00    +0.205 A 
ATOM      7  C   UNL     1       5.176  -2.238   4.364  0.00  0.00    +0.174 A 
ATOM      8  C   UNL     1       1.935  -4.488   2.664  0.00  0.00    +0.131 A 
ATOM      9  N   UNL     1       1.447  -5.567   3.203  0.00  0.00    -0.294 NA
ATOM     10  H   UNL     1       1.996  -5.818   4.040  0.00  0.00    +0.187 HD
ATOM     11  C   UNL     1       1.275  -3.973   1.392  0.00  0.00    +0.275 A 
ATOM     12  O   UNL     1       0.398  -4.594   0.809  0.00  0.00    -0.266 OA
ATOM     13  C   UNL     1       4.515  -1.685   3.191  0.00  0.00    +0.038 A 
ATOM     14  C   UNL     1       4.850  -0.425   2.500  0.00  0.00    -0.003 A 
ATOM     15  C   UNL     1       5.957   0.412   2.813  0.00  0.00    +0.009 A 
ATOM     16  C   UNL     1       6.215   1.638   2.186  0.00  0.00    +0.001 A 
ATOM     17  C   UNL     1       5.400   2.068   1.160  0.00  0.00    +0.001 A 
ATOM     18  C   UNL     1       4.352   1.254   0.756  0.00  0.00    +0.012 A 
ATOM     19  N   UNL     1       1.720  -2.768   0.945  0.00  0.00    -0.317 N 
ATOM     20  H   UNL     1       1.291  -2.432   0.091  0.00  0.00    +0.169 HD
ATOM     21  C   UNL     1       4.066   0.027   1.400  0.00  0.00    +0.027 A 
ENDROOT
BRANCH   1  23
ATOM     22  C   UNL     1       1.121   0.302   0.127  0.00  0.00    +0.277 C 
ATOM     23  O   UNL     1       2.311  -0.424  -0.193  0.00  0.00    -0.492 OA
ENDBRANCH   1  23
BRANCH   6  24
ATOM     24  O   UNL     1       5.502  -4.255   5.837  0.00  0.00    -0.488 OA
ATOM     25  C   UNL     1       6.263  -3.615   6.844  0.00  0.00    +0.277 C 
ENDBRANCH   6  24
BRANCH   7  26
ATOM     26  O   UNL     1       6.190  -1.535   4.976  0.00  0.00    -0.491 OA
ATOM     27  C   UNL     1       5.687  -0.591   5.933  0.00  0.00    +0.277 C 
ENDBRANCH   7  26
BRANCH   5  28
ATOM     28  O   UNL     1       3.520  -5.463   4.820  0.00  0.00    -0.503 OA
ATOM     29  H   UNL     1       4.212  -5.637   5.492  0.00  0.00    +0.292 HD
ENDBRANCH   5  28
TORSDOF 4
