REMARK  Name = opt57.xyz
REMARK  6 active torsions:
REMARK  status: ('A' for Active; 'I' for Inactive)
REMARK    1  A    between atoms: C_1  and  O_2
REMARK    2  A    between atoms: O_2  and  C_3
REMARK    3  A    between atoms: C_4  and  O_23
REMARK    4  A    between atoms: C_5  and  O_21
REMARK    5  A    between atoms: O_21  and  C_22
REMARK    6  A    between atoms: O_23  and  C_24
REMARK                            x       y       z     vdW  Elec       q    Type
REMARK                         _______ _______ _______ _____ _____    ______ ____
ROOT
ATOM      1  C   UNL     1       3.007  -1.010   0.837  0.00  0.00    +0.173 A 
ATOM      2  C   UNL     1       3.920  -0.160   1.482  0.00  0.00    +0.205 A 
ATOM      3  C   UNL     1       4.544  -0.568   2.683  0.00  0.00    +0.174 A 
ATOM      4  C   UNL     1       4.275  -1.858   3.241  0.00  0.00    +0.038 A 
ATOM      5  C   UNL     1       4.943  -2.428   4.473  0.00  0.00    -0.003 A 
ATOM      6  C   UNL     1       6.046  -1.849   5.135  0.00  0.00    +0.009 A 
ATOM      7  C   UNL     1       6.626  -2.410   6.285  0.00  0.00    +0.001 A 
ATOM      8  C   UNL     1       6.137  -3.593   6.810  0.00  0.00    +0.001 A 
ATOM      9  C   UNL     1       5.080  -4.222   6.171  0.00  0.00    +0.012 A 
ATOM     10  C   UNL     1       4.502  -3.652   5.018  0.00  0.00    +0.032 A 
ATOM     11  C   UNL     1       3.431  -4.424   4.357  0.00  0.00    +0.212 C 
ATOM     12  O   UNL     1       2.998  -5.446   4.881  0.00  0.00    -0.285 OA
ATOM     13  C   UNL     1       2.922  -3.942   3.053  0.00  0.00    +0.119 A 
ATOM     14  N   UNL     1       2.057  -4.792   2.435  0.00  0.00    -0.251 NA
ATOM     15  C   UNL     1       1.561  -4.406   1.256  0.00  0.00    +0.112 A 
ATOM     16  C   UNL     1       1.861  -3.188   0.685  0.00  0.00    +0.032 A 
ATOM     17  C   UNL     1       3.323  -2.689   2.568  0.00  0.00    +0.026 A 
ATOM     18  C   UNL     1       2.719  -2.289   1.351  0.00  0.00    +0.032 A 
ENDROOT
BRANCH   1  20
ATOM     19  C   UNL     1       1.063  -0.236  -0.193  0.00  0.00    +0.277 C 
ATOM     20  O   UNL     1       2.442  -0.594  -0.351  0.00  0.00    -0.491 OA
ENDBRANCH   1  20
BRANCH   3  21
ATOM     21  O   UNL     1       5.350   0.248   3.437  0.00  0.00    -0.491 OA
ATOM     22  C   UNL     1       5.990   1.383   2.874  0.00  0.00    +0.277 C 
ENDBRANCH   3  21
BRANCH   2  23
ATOM     23  O   UNL     1       4.298   1.020   0.888  0.00  0.00    -0.488 OA
ATOM     24  C   UNL     1       3.254   1.984   0.784  0.00  0.00    +0.277 C 
ENDBRANCH   2  23
TORSDOF 3
