REMARK  Name = opt67.xyz
REMARK  6 active torsions:
REMARK  status: ('A' for Active; 'I' for Inactive)
REMARK    1  A    between atoms: C_1  and  O_2
REMARK    2  A    between atoms: O_2  and  C_3
REMARK    3  A    between atoms: C_4  and  O_14
REMARK    4  A    between atoms: C_7  and  C_9
REMARK    5  A    between atoms: C_10  and  C_11
REMARK    6  A    between atoms: C_11  and  O_13
REMARK                            x       y       z     vdW  Elec       q    Type
REMARK                         _______ _______ _______ _____ _____    ______ ____
ROOT
ATOM      1  C   UNL     1       3.022   1.371   0.181  0.00  0.00    +0.162 A 
ATOM      2  C   UNL     1       4.421   1.337   0.105  0.00  0.00    +0.057 A 
ATOM      3  C   UNL     1       5.175   2.508  -0.078  0.00  0.00    -0.021 A 
ATOM      4  C   UNL     1       4.499   3.729  -0.179  0.00  0.00    +0.012 A 
ATOM      5  C   UNL     1       3.105   3.775  -0.104  0.00  0.00    +0.050 A 
ATOM      6  C   UNL     1       2.377   2.606   0.102  0.00  0.00    +0.158 A 
ENDROOT
BRANCH   1   8
ATOM      7  C   UNL     1       1.149  -0.060  -0.174  0.00  0.00    +0.277 C 
ATOM      8  O   UNL     1       2.435   0.155   0.399  0.00  0.00    -0.491 OA
ENDBRANCH   1   8
BRANCH   3   9
ATOM      9  C   UNL     1       6.644   2.411  -0.073  0.00  0.00    +0.015 C 
ATOM     10  C   UNL     1       7.475   3.268  -0.688  0.00  0.00    +0.092 C 
BRANCH  10  11
ATOM     11  C   UNL     1       8.934   3.054  -0.591  0.00  0.00    +0.330 C 
ATOM     12  O   UNL     1       9.462   2.124  -0.005  0.00  0.00    -0.246 OA
BRANCH  11  13
ATOM     13  O   UNL     1       9.631   4.018  -1.224  0.00  0.00    -0.478 OA
ATOM     14  H   UNL     1       9.099   4.712  -1.652  0.00  0.00    +0.295 HD
ENDBRANCH  11  13
ENDBRANCH  10  11
ENDBRANCH   3   9
BRANCH   6  15
ATOM     15  O   UNL     1       1.036   2.766   0.301  0.00  0.00    -0.503 OA
ATOM     16  H   UNL     1       0.802   2.163   1.027  0.00  0.00    +0.292 HD
ENDBRANCH   6  15
TORSDOF 5
