REMARK  Name = opt63.xyz
REMARK  5 active torsions:
REMARK  status: ('A' for Active; 'I' for Inactive)
REMARK    1  A    between atoms: C_1  and  O_2
REMARK    2  A    between atoms: O_2  and  C_3
REMARK    3  A    between atoms: C_4  and  O_12
REMARK    4  A    between atoms: C_7  and  C_9
REMARK    5  A    between atoms: C_9  and  O_11
REMARK                            x       y       z     vdW  Elec       q    Type
REMARK                         _______ _______ _______ _____ _____    ______ ____
ROOT
ATOM      1  C   UNL     1       2.905   1.240   0.410  0.00  0.00    +0.162 A 
ATOM      2  C   UNL     1       2.332   2.511   0.318  0.00  0.00    +0.158 A 
ATOM      3  C   UNL     1       3.114   3.628   0.043  0.00  0.00    +0.050 A 
ATOM      4  C   UNL     1       4.496   3.486  -0.094  0.00  0.00    +0.019 A 
ATOM      5  C   UNL     1       5.083   2.218   0.029  0.00  0.00    +0.063 A 
ATOM      6  C   UNL     1       4.286   1.096   0.294  0.00  0.00    +0.064 A 
ENDROOT
BRANCH   1   8
ATOM      7  C   UNL     1       1.215  -0.191  -0.316  0.00  0.00    +0.277 C 
ATOM      8  O   UNL     1       2.172   0.122   0.700  0.00  0.00    -0.491 OA
ENDBRANCH   1   8
BRANCH   2   9
ATOM      9  O   UNL     1       1.003   2.715   0.554  0.00  0.00    -0.503 OA
ATOM     10  H   UNL     1       0.705   1.958   1.092  0.00  0.00    +0.292 HD
ENDBRANCH   2   9
BRANCH   5  11
ATOM     11  C   UNL     1       6.551   2.034  -0.052  0.00  0.00    +0.337 C 
ATOM     12  O   UNL     1       7.157   1.223   0.627  0.00  0.00    -0.245 OA
BRANCH  11  13
ATOM     13  O   UNL     1       7.143   2.818  -0.977  0.00  0.00    -0.477 OA
ATOM     14  H   UNL     1       6.530   3.291  -1.570  0.00  0.00    +0.295 HD
ENDBRANCH  11  13
ENDBRANCH   5  11
TORSDOF 4
