REMARK  Name = opt64.xyz
REMARK  8 active torsions:
REMARK  status: ('A' for Active; 'I' for Inactive)
REMARK    1  A    between atoms: C_2  and  O_33
REMARK    2  A    between atoms: C_3  and  C_25
REMARK    3  A    between atoms: C_7  and  O_24
REMARK    4  A    between atoms: C_11  and  C_16
REMARK    5  A    between atoms: C_18  and  O_23
REMARK    6  A    between atoms: C_19  and  O_22
REMARK    7  A    between atoms: C_27  and  O_32
REMARK    8  A    between atoms: C_28  and  O_31
REMARK                            x       y       z     vdW  Elec       q    Type
REMARK                         _______ _______ _______ _____ _____    ______ ____
ROOT
ATOM      1  C   UNL     1      -2.941  -1.086   0.133  0.00  0.00    +0.078 C 
ATOM      2  C   UNL     1      -3.602   0.253   0.445  0.00  0.00    +0.164 C 
ATOM      3  C   UNL     1      -2.834   1.375  -0.281  0.00  0.00    +0.232 C 
ATOM      4  O   UNL     1      -1.463   1.420   0.127  0.00  0.00    -0.481 OA
ATOM      5  C   UNL     1      -0.791   0.227   0.080  0.00  0.00    +0.135 A 
ATOM      6  C   UNL     1       0.611   0.312   0.012  0.00  0.00    +0.045 A 
ATOM      7  C   UNL     1       1.349  -0.868  -0.017  0.00  0.00    +0.142 A 
ATOM      8  C   UNL     1       0.732  -2.111   0.026  0.00  0.00    +0.092 A 
ATOM      9  C   UNL     1      -0.656  -2.179   0.082  0.00  0.00    +0.127 A 
ATOM     10  O   UNL     1       2.744  -0.863  -0.198  0.00  0.00    -0.425 OA
ATOM     11  C   UNL     1       3.475   0.317  -0.186  0.00  0.00    +0.313 C 
ATOM     12  C   UNL     1       2.761   1.512   0.376  0.00  0.00    +0.134 C 
ATOM     13  O   UNL     1       4.658   0.339  -0.508  0.00  0.00    -0.250 OA
ATOM     14  C   UNL     1       1.331   1.631  -0.136  0.00  0.00    +0.067 C 
ATOM     15  C   UNL     1      -1.441  -1.017   0.118  0.00  0.00    +0.039 A 
ENDROOT
BRANCH  14  16
ATOM     16  C   UNL     1       1.259   2.210  -1.548  0.00  0.00    -0.036 A 
ATOM     17  C   UNL     1       1.101   3.602  -1.707  0.00  0.00    +0.008 A 
ATOM     18  C   UNL     1       0.991   4.173  -2.977  0.00  0.00    +0.049 A 
ATOM     19  C   UNL     1       1.039   3.355  -4.094  0.00  0.00    +0.158 A 
ATOM     20  C   UNL     1       1.211   1.982  -3.961  0.00  0.00    +0.158 A 
ATOM     21  C   UNL     1       1.331   1.404  -2.701  0.00  0.00    +0.053 A 
BRANCH  20  22
ATOM     22  O   UNL     1       1.244   1.232  -5.104  0.00  0.00    -0.503 OA
ATOM     23  H   UNL     1       1.407   0.306  -4.855  0.00  0.00    +0.292 HD
ENDBRANCH  20  22
BRANCH  19  24
ATOM     24  O   UNL     1       0.912   3.910  -5.335  0.00  0.00    -0.503 OA
ATOM     25  H   UNL     1       0.981   3.151  -5.948  0.00  0.00    +0.292 HD
ENDBRANCH  19  24
ENDBRANCH  14  16
BRANCH   3  26
ATOM     26  C   UNL     1      -3.424   2.748   0.010  0.00  0.00    -0.001 A 
ATOM     27  C   UNL     1      -3.421   3.277   1.315  0.00  0.00    +0.056 A 
ATOM     28  C   UNL     1      -3.991   4.522   1.560  0.00  0.00    +0.159 A 
ATOM     29  C   UNL     1      -4.557   5.253   0.521  0.00  0.00    +0.158 A 
ATOM     30  C   UNL     1      -4.556   4.761  -0.775  0.00  0.00    +0.049 A 
ATOM     31  C   UNL     1      -3.987   3.510  -1.032  0.00  0.00    +0.011 A 
BRANCH  28  32
ATOM     32  O   UNL     1      -4.020   5.071   2.812  0.00  0.00    -0.503 OA
ATOM     33  H   UNL     1      -3.596   4.448   3.427  0.00  0.00    +0.292 HD
ENDBRANCH  28  32
BRANCH  29  34
ATOM     34  O   UNL     1      -5.120   6.471   0.771  0.00  0.00    -0.503 OA
ATOM     35  H   UNL     1      -5.003   6.602   1.733  0.00  0.00    +0.292 HD
ENDBRANCH  29  34
ENDBRANCH   3  26
BRANCH   2  36
ATOM     36  O   UNL     1      -4.979   0.150   0.066  0.00  0.00    -0.387 OA
ATOM     37  H   UNL     1      -5.148   0.731  -0.695  0.00  0.00    +0.210 HD
ENDBRANCH   2  36
BRANCH   9  38
ATOM     38  O   UNL     1      -1.185  -3.439   0.077  0.00  0.00    -0.506 OA
ATOM     39  H   UNL     1      -2.153  -3.405   0.052  0.00  0.00    +0.292 HD
ENDBRANCH   9  38
TORSDOF 8
