REMARK  Name = opt69.xyz
REMARK  17 active torsions:
REMARK  status: ('A' for Active; 'I' for Inactive)
REMARK    1  A    between atoms: C_1  and  C_2
REMARK    2  A    between atoms: C_3  and  O_43
REMARK    3  A    between atoms: C_4  and  O_42
REMARK    4  A    between atoms: C_5  and  O_41
REMARK    5  A    between atoms: C_6  and  O_8
REMARK    6  A    between atoms: O_8  and  C_9
REMARK    7  A    between atoms: C_9  and  C_10
REMARK    8  A    between atoms: C_11  and  O_40
REMARK    9  A    between atoms: C_12  and  O_39
REMARK   10  A    between atoms: C_13  and  O_38
REMARK   11  A    between atoms: C_14  and  O_16
REMARK   12  A    between atoms: O_16  and  C_17
REMARK   13  A    between atoms: C_18  and  C_30
REMARK   14  A    between atoms: C_22  and  O_29
REMARK   15  A    between atoms: C_24  and  O_28
REMARK   16  A    between atoms: C_32  and  O_37
REMARK   17  A    between atoms: C_33  and  O_36
REMARK                            x       y       z     vdW  Elec       q    Type
REMARK                         _______ _______ _______ _____ _____    ______ ____
ROOT
ATOM      1  C   UNL     1       3.380  -4.216  -3.671  0.00  0.00    +0.179 C 
ATOM      2  O   UNL     1       4.464  -4.238  -2.735  0.00  0.00    -0.331 OA
ATOM      3  C   UNL     1       4.288  -4.898  -1.487  0.00  0.00    +0.340 C 
ATOM      4  C   UNL     1       3.460  -6.217  -1.476  0.00  0.00    +0.214 C 
ATOM      5  C   UNL     1       2.242  -6.052  -2.389  0.00  0.00    +0.180 C 
ATOM      6  C   UNL     1       2.692  -5.578  -3.778  0.00  0.00    +0.177 C 
ENDROOT
BRANCH   6   7
ATOM      7  O   UNL     1       3.614  -6.548  -4.327  0.00  0.00    -0.386 OA
ATOM      8  H   UNL     1       4.505  -6.121  -4.406  0.00  0.00    +0.210 HD
ENDBRANCH   6   7
BRANCH   5   9
ATOM      9  O   UNL     1       1.535  -7.292  -2.498  0.00  0.00    -0.386 OA
ATOM     10  H   UNL     1       2.208  -7.958  -2.749  0.00  0.00    +0.210 HD
ENDBRANCH   5   9
BRANCH   4  11
ATOM     11  O   UNL     1       4.190  -7.394  -1.881  0.00  0.00    -0.383 OA
ATOM     12  H   UNL     1       4.319  -7.323  -2.853  0.00  0.00    +0.210 HD
ENDBRANCH   4  11
BRANCH   3  13
ATOM     13  O   UNL     1       5.535  -5.013  -0.781  0.00  0.00    -0.453 OA
BRANCH  13  14
ATOM     14  C   UNL     1       6.533  -5.879  -1.218  0.00  0.00    +0.214 A 
ATOM     15  C   UNL     1       7.394  -6.407  -0.325  0.00  0.00    +0.181 A 
ATOM     16  O   UNL     1       8.436  -7.264  -0.617  0.00  0.00    -0.451 OA
ATOM     17  C   UNL     1       8.496  -7.811  -1.869  0.00  0.00    +0.147 A 
ATOM     18  C   UNL     1       9.429  -8.834  -2.054  0.00  0.00    +0.092 A 
ATOM     19  C   UNL     1       9.520  -9.454  -3.294  0.00  0.00    +0.124 A 
ATOM     20  C   UNL     1       8.700  -9.068  -4.347  0.00  0.00    +0.091 A 
ATOM     21  C   UNL     1       7.775  -8.041  -4.157  0.00  0.00    +0.135 A 
ATOM     22  C   UNL     1       7.676  -7.397  -2.913  0.00  0.00    +0.109 A 
ATOM     23  C   UNL     1       6.727  -6.296  -2.651  0.00  0.00    +0.238 A 
ATOM     24  O   UNL     1       6.113  -5.803  -3.590  0.00  0.00    -0.283 OA
BRANCH  15  25
ATOM     25  C   UNL     1       7.284  -6.163   1.122  0.00  0.00    +0.025 A 
ATOM     26  C   UNL     1       6.436  -6.977   1.894  0.00  0.00    +0.015 A 
ATOM     27  C   UNL     1       6.387  -6.834   3.281  0.00  0.00    +0.050 A 
ATOM     28  C   UNL     1       7.186  -5.878   3.888  0.00  0.00    +0.158 A 
ATOM     29  C   UNL     1       8.018  -5.055   3.131  0.00  0.00    +0.159 A 
ATOM     30  C   UNL     1       8.075  -5.189   1.747  0.00  0.00    +0.060 A 
BRANCH  29  31
ATOM     31  O   UNL     1       8.778  -4.136   3.802  0.00  0.00    -0.503 OA
ATOM     32  H   UNL     1       9.271  -3.613   3.146  0.00  0.00    +0.292 HD
ENDBRANCH  29  31
BRANCH  28  33
ATOM     33  O   UNL     1       7.158  -5.755   5.248  0.00  0.00    -0.503 OA
ATOM     34  H   UNL     1       7.802  -5.044   5.443  0.00  0.00    +0.292 HD
ENDBRANCH  28  33
ENDBRANCH  15  25
BRANCH  21  35
ATOM     35  O   UNL     1       6.956  -7.699  -5.197  0.00  0.00    -0.506 OA
ATOM     36  H   UNL     1       7.180  -8.220  -5.985  0.00  0.00    +0.292 HD
ENDBRANCH  21  35
BRANCH  19  37
ATOM     37  O   UNL     1      10.404 -10.465  -3.522  0.00  0.00    -0.507 OA
ATOM     38  H   UNL     1      10.893 -10.652  -2.703  0.00  0.00    +0.292 HD
ENDBRANCH  19  37
ENDBRANCH  13  14
ENDBRANCH   3  13
BRANCH   1  39
ATOM     39  C   UNL     1       2.429  -3.049  -3.383  0.00  0.00    +0.197 C 
BRANCH  39  40
ATOM     40  O   UNL     1       3.194  -1.852  -3.529  0.00  0.00    -0.346 OA
BRANCH  40  46
ATOM     41  C   UNL     1      -0.222   0.772  -2.965  0.00  0.00    +0.041 C 
ATOM     42  C   UNL     1       0.986   0.648  -2.039  0.00  0.00    +0.149 C 
ATOM     43  C   UNL     1       1.933   1.860  -2.117  0.00  0.00    +0.174 C 
ATOM     44  C   UNL     1       2.746   1.835  -3.420  0.00  0.00    +0.179 C 
ATOM     45  C   UNL     1       3.445   0.487  -3.585  0.00  0.00    +0.201 C 
ATOM     46  C   UNL     1       2.416  -0.656  -3.490  0.00  0.00    +0.282 C 
ATOM     47  O   UNL     1       1.679  -0.589  -2.270  0.00  0.00    -0.343 OA
BRANCH  45  48
ATOM     48  O   UNL     1       4.428   0.329  -2.529  0.00  0.00    -0.384 OA
ATOM     49  H   UNL     1       4.675  -0.621  -2.571  0.00  0.00    +0.210 HD
ENDBRANCH  45  48
BRANCH  44  50
ATOM     50  O   UNL     1       3.715   2.888  -3.414  0.00  0.00    -0.386 OA
ATOM     51  H   UNL     1       4.269   2.720  -2.624  0.00  0.00    +0.210 HD
ENDBRANCH  44  50
BRANCH  43  52
ATOM     52  O   UNL     1       2.825   1.835  -0.987  0.00  0.00    -0.387 OA
ATOM     53  H   UNL     1       3.451   1.092  -1.136  0.00  0.00    +0.210 HD
ENDBRANCH  43  52
ENDBRANCH  40  46
ENDBRANCH  39  40
ENDBRANCH   1  39
TORSDOF 16
