REMARK  Name = opt62.xyz
REMARK  4 active torsions:
REMARK  status: ('A' for Active; 'I' for Inactive)
REMARK    1  A    between atoms: C_3  and  O_11
REMARK    2  A    between atoms: C_4  and  O_10
REMARK    3  A    between atoms: C_6  and  C_7
REMARK    4  A    between atoms: C_7  and  O_9
REMARK                            x       y       z     vdW  Elec       q    Type
REMARK                         _______ _______ _______ _____ _____    ______ ____
ROOT
ATOM      1  C   UNL     1      -1.926   0.693  -0.017  0.00  0.00    +0.019 A 
ATOM      2  C   UNL     1      -1.950  -0.711   0.008  0.00  0.00    +0.063 A 
ATOM      3  C   UNL     1      -0.755  -1.436   0.047  0.00  0.00    +0.064 A 
ATOM      4  C   UNL     1       0.446  -0.742   0.025  0.00  0.00    +0.159 A 
ATOM      5  C   UNL     1       0.475   0.651  -0.017  0.00  0.00    +0.158 A 
ATOM      6  C   UNL     1      -0.708   1.379  -0.033  0.00  0.00    +0.050 A 
ENDROOT
BRANCH   4   7
ATOM      7  O   UNL     1       1.615  -1.447   0.051  0.00  0.00    -0.503 OA
ATOM      8  H   UNL     1       2.318  -0.766   0.048  0.00  0.00    +0.292 HD
ENDBRANCH   4   7
BRANCH   5   9
ATOM      9  O   UNL     1       1.699   1.259  -0.033  0.00  0.00    -0.503 OA
ATOM     10  H   UNL     1       1.563   2.223  -0.037  0.00  0.00    +0.292 HD
ENDBRANCH   5   9
BRANCH   2  11
ATOM     11  C   UNL     1      -3.267  -1.389   0.027  0.00  0.00    +0.337 C 
ATOM     12  O   UNL     1      -4.237  -0.932   0.606  0.00  0.00    -0.245 OA
BRANCH  11  13
ATOM     13  O   UNL     1      -3.301  -2.518  -0.709  0.00  0.00    -0.477 OA
ATOM     14  H   UNL     1      -2.504  -2.686  -1.246  0.00  0.00    +0.295 HD
ENDBRANCH  11  13
ENDBRANCH   2  11
TORSDOF 4
