REMARK  Name = opt61.xyz
REMARK  13 active torsions:
REMARK  status: ('A' for Active; 'I' for Inactive)
REMARK    1  A    between atoms: C_2  and  O_42
REMARK    2  A    between atoms: C_3  and  C_34
REMARK    3  A    between atoms: C_7  and  O_33
REMARK    4  A    between atoms: C_9  and  O_32
REMARK    5  A    between atoms: C_10  and  C_11
REMARK    6  A    between atoms: C_12  and  O_31
REMARK    7  A    between atoms: C_13  and  C_23
REMARK    8  A    between atoms: C_17  and  O_22
REMARK    9  A    between atoms: C_19  and  O_21
REMARK   10  A    between atoms: C_25  and  O_30
REMARK   11  A    between atoms: C_26  and  O_29
REMARK   12  A    between atoms: C_36  and  O_41
REMARK   13  A    between atoms: C_37  and  O_40
REMARK                            x       y       z     vdW  Elec       q    Type
REMARK                         _______ _______ _______ _____ _____    ______ ____
ROOT
ATOM      1  C   UNL     1      -1.233   1.865   0.378  0.00  0.00    +0.078 C 
ATOM      2  C   UNL     1       0.025   1.048   0.271  0.00  0.00    +0.039 A 
ATOM      3  C   UNL     1       1.284   1.659   0.235  0.00  0.00    +0.127 A 
ATOM      4  C   UNL     1       2.441   0.911   0.063  0.00  0.00    +0.091 A 
ATOM      5  C   UNL     1       2.352  -0.472  -0.067  0.00  0.00    +0.128 A 
ATOM      6  C   UNL     1       1.121  -1.147   0.008  0.00  0.00    +0.046 A 
ATOM      7  C   UNL     1      -0.041  -0.358   0.196  0.00  0.00    +0.136 A 
ATOM      8  O   UNL     1      -1.239  -1.018   0.235  0.00  0.00    -0.481 OA
ATOM      9  C   UNL     1      -2.382  -0.300   0.708  0.00  0.00    +0.232 C 
ATOM     10  C   UNL     1      -2.488   1.070   0.027  0.00  0.00    +0.164 C 
ENDROOT
BRANCH   6  11
ATOM     11  C   UNL     1       1.113  -2.680  -0.186  0.00  0.00    +0.096 C 
ATOM     12  C   UNL     1       0.099  -3.444   0.643  0.00  0.00    +0.046 A 
ATOM     13  C   UNL     1       0.249  -3.577   2.032  0.00  0.00    +0.128 A 
ATOM     14  C   UNL     1      -0.707  -4.234   2.803  0.00  0.00    +0.091 A 
ATOM     15  C   UNL     1      -1.827  -4.770   2.180  0.00  0.00    +0.124 A 
ATOM     16  C   UNL     1      -1.989  -4.680   0.803  0.00  0.00    +0.091 A 
ATOM     17  C   UNL     1      -1.030  -4.014   0.036  0.00  0.00    +0.132 A 
ATOM     18  O   UNL     1      -1.281  -3.977  -1.311  0.00  0.00    -0.481 OA
ATOM     19  C   UNL     1      -0.499  -3.034  -2.066  0.00  0.00    +0.233 C 
ATOM     20  C   UNL     1       0.987  -3.091  -1.679  0.00  0.00    +0.172 C 
BRANCH  19  21
ATOM     21  C   UNL     1      -0.779  -3.259  -3.546  0.00  0.00    -0.001 A 
ATOM     22  C   UNL     1      -1.020  -4.536  -4.078  0.00  0.00    +0.056 A 
ATOM     23  C   UNL     1      -1.322  -4.669  -5.430  0.00  0.00    +0.159 A 
ATOM     24  C   UNL     1      -1.379  -3.550  -6.258  0.00  0.00    +0.158 A 
ATOM     25  C   UNL     1      -1.124  -2.284  -5.759  0.00  0.00    +0.049 A 
ATOM     26  C   UNL     1      -0.820  -2.141  -4.406  0.00  0.00    +0.011 A 
BRANCH  23  27
ATOM     27  O   UNL     1      -1.581  -5.888  -5.996  0.00  0.00    -0.503 OA
ATOM     28  H   UNL     1      -1.467  -6.566  -5.308  0.00  0.00    +0.292 HD
ENDBRANCH  23  27
BRANCH  24  29
ATOM     29  O   UNL     1      -1.688  -3.692  -7.581  0.00  0.00    -0.503 OA
ATOM     30  H   UNL     1      -1.807  -4.656  -7.699  0.00  0.00    +0.292 HD
ENDBRANCH  24  29
ENDBRANCH  19  21
BRANCH  15  31
ATOM     31  O   UNL     1      -2.760  -5.380   2.967  0.00  0.00    -0.507 OA
ATOM     32  H   UNL     1      -3.533  -5.592   2.416  0.00  0.00    +0.292 HD
ENDBRANCH  15  31
BRANCH  13  33
ATOM     33  O   UNL     1       1.359  -3.050   2.631  0.00  0.00    -0.506 OA
ATOM     34  H   UNL     1       1.306  -3.211   3.588  0.00  0.00    +0.292 HD
ENDBRANCH  13  33
BRANCH  20  35
ATOM     35  O   UNL     1       1.809  -2.289  -2.536  0.00  0.00    -0.387 OA
ATOM     36  H   UNL     1       2.644  -2.123  -2.055  0.00  0.00    +0.210 HD
ENDBRANCH  20  35
ENDBRANCH   6  11
BRANCH   9  37
ATOM     37  C   UNL     1      -3.598  -1.172   0.420  0.00  0.00    -0.001 A 
ATOM     38  C   UNL     1      -4.512  -1.469   1.448  0.00  0.00    +0.011 A 
ATOM     39  C   UNL     1      -5.620  -2.284   1.205  0.00  0.00    +0.049 A 
ATOM     40  C   UNL     1      -5.810  -2.812  -0.063  0.00  0.00    +0.158 A 
ATOM     41  C   UNL     1      -4.917  -2.532  -1.091  0.00  0.00    +0.159 A 
ATOM     42  C   UNL     1      -3.825  -1.703  -0.864  0.00  0.00    +0.056 A 
BRANCH  40  43
ATOM     43  O   UNL     1      -6.883  -3.623  -0.295  0.00  0.00    -0.503 OA
ATOM     44  H   UNL     1      -6.819  -3.844  -1.247  0.00  0.00    +0.292 HD
ENDBRANCH  40  43
BRANCH  41  45
ATOM     45  O   UNL     1      -5.145  -3.108  -2.310  0.00  0.00    -0.503 OA
ATOM     46  H   UNL     1      -4.365  -2.949  -2.873  0.00  0.00    +0.292 HD
ENDBRANCH  41  45
ENDBRANCH   9  37
BRANCH   3  47
ATOM     47  O   UNL     1       1.464   3.009   0.341  0.00  0.00    -0.506 OA
ATOM     48  H   UNL     1       0.628   3.439   0.583  0.00  0.00    +0.292 HD
ENDBRANCH   3  47
BRANCH   5  49
ATOM     49  O   UNL     1       3.491  -1.191  -0.328  0.00  0.00    -0.506 OA
ATOM     50  H   UNL     1       4.259  -0.610  -0.183  0.00  0.00    +0.292 HD
ENDBRANCH   5  49
BRANCH  10  51
ATOM     51  O   UNL     1      -3.624   1.819   0.467  0.00  0.00    -0.387 OA
ATOM     52  H   UNL     1      -4.420   1.324   0.198  0.00  0.00    +0.210 HD
ENDBRANCH  10  51
TORSDOF 13
