REMARK  Name = opt60.xyz
REMARK  6 active torsions:
REMARK  status: ('A' for Active; 'I' for Inactive)
REMARK    1  A    between atoms: C_1  and  O_2
REMARK    2  A    between atoms: O_2  and  C_3
REMARK    3  A    between atoms: C_4  and  O_23
REMARK    4  A    between atoms: C_9  and  O_21
REMARK    5  A    between atoms: O_21  and  C_22
REMARK    6  A    between atoms: O_23  and  C_24
REMARK                            x       y       z     vdW  Elec       q    Type
REMARK                         _______ _______ _______ _____ _____    ______ ____
ROOT
ATOM      1  C   UNL     1       2.999  -0.635   1.063  0.00  0.00    +0.163 A 
ATOM      2  C   UNL     1       4.027   0.156   1.623  0.00  0.00    +0.170 A 
ATOM      3  C   UNL     1       4.741  -0.293   2.783  0.00  0.00    +0.038 A 
ATOM      4  C   UNL     1       5.855   0.467   3.476  0.00  0.00    -0.003 A 
ATOM      5  C   UNL     1       6.477  -0.072   4.623  0.00  0.00    +0.032 A 
ATOM      6  C   UNL     1       7.517   0.592   5.308  0.00  0.00    +0.012 A 
ATOM      7  C   UNL     1       7.976   1.824   4.869  0.00  0.00    +0.001 A 
ATOM      8  C   UNL     1       7.396   2.387   3.747  0.00  0.00    +0.001 A 
ATOM      9  C   UNL     1       6.059  -1.380   5.162  0.00  0.00    +0.212 C 
ATOM     10  O   UNL     1       6.605  -1.835   6.164  0.00  0.00    -0.285 OA
ATOM     11  C   UNL     1       4.980  -2.117   4.470  0.00  0.00    +0.120 A 
ATOM     12  N   UNL     1       4.667  -3.318   5.029  0.00  0.00    -0.247 NA
ATOM     13  C   UNL     1       3.695  -4.034   4.444  0.00  0.00    +0.157 A 
ATOM     14  C   UNL     1       3.007  -3.615   3.319  0.00  0.00    +0.146 A 
ATOM     15  C   UNL     1       3.352  -2.360   2.759  0.00  0.00    +0.032 A 
ATOM     16  C   UNL     1       6.362   1.720   3.069  0.00  0.00    +0.009 A 
ATOM     17  C   UNL     1       4.372  -1.565   3.337  0.00  0.00    +0.026 A 
ATOM     18  C   UNL     1       2.696  -1.877   1.621  0.00  0.00    +0.061 A 
ENDROOT
BRANCH   1  20
ATOM     19  C   UNL     1       0.984  -0.597  -0.211  0.00  0.00    +0.277 C 
ATOM     20  O   UNL     1       2.345  -0.201  -0.062  0.00  0.00    -0.491 OA
ENDBRANCH   1  20
BRANCH  14  21
ATOM     21  O   UNL     1       2.005  -4.323   2.704  0.00  0.00    -0.493 OA
ATOM     22  C   UNL     1       1.651  -5.582   3.267  0.00  0.00    +0.277 C 
ENDBRANCH  14  21
BRANCH   2  23
ATOM     23  O   UNL     1       4.396   1.382   1.135  0.00  0.00    -0.491 OA
ATOM     24  C   UNL     1       3.832   1.934  -0.043  0.00  0.00    +0.277 C 
ENDBRANCH   2  23
TORSDOF 3
