REMARK  Name = opt68.xyz
REMARK  5 active torsions:
REMARK  status: ('A' for Active; 'I' for Inactive)
REMARK    1  A    between atoms: C_2  and  C_10
REMARK    2  A    between atoms: C_4  and  O_9
REMARK    3  A    between atoms: C_5  and  O_8
REMARK    4  A    between atoms: C_6  and  O_7
REMARK    5  A    between atoms: C_10  and  O_12
REMARK                            x       y       z     vdW  Elec       q    Type
REMARK                         _______ _______ _______ _____ _____    ______ ____
ROOT
ATOM      1  C   UNL     1       1.264  -1.422   0.048  0.00  0.00    +0.064 A 
ATOM      2  C   UNL     1       1.242  -0.034   0.022  0.00  0.00    +0.163 A 
ATOM      3  C   UNL     1       0.037   0.655  -0.016  0.00  0.00    +0.201 A 
ATOM      4  C   UNL     1      -1.169  -0.037  -0.023  0.00  0.00    +0.163 A 
ATOM      5  C   UNL     1      -1.175  -1.427  -0.006  0.00  0.00    +0.064 A 
ATOM      6  C   UNL     1       0.048  -2.120   0.014  0.00  0.00    +0.066 A 
ENDROOT
BRANCH   2   7
ATOM      7  O   UNL     1       2.422   0.650   0.042  0.00  0.00    -0.503 OA
ATOM      8  H   UNL     1       2.164   1.595   0.037  0.00  0.00    +0.292 HD
ENDBRANCH   2   7
BRANCH   4   9
ATOM      9  O   UNL     1      -2.323   0.694  -0.046  0.00  0.00    -0.503 OA
ATOM     10  H   UNL     1      -3.079   0.081   0.001  0.00  0.00    +0.292 HD
ENDBRANCH   4   9
BRANCH   3  11
ATOM     11  O   UNL     1       0.055   2.023  -0.037  0.00  0.00    -0.501 OA
ATOM     12  H   UNL     1      -0.890   2.279  -0.050  0.00  0.00    +0.292 HD
ENDBRANCH   3  11
BRANCH   6  13
ATOM     13  C   UNL     1       0.003  -3.600   0.035  0.00  0.00    +0.337 C 
ATOM     14  O   UNL     1      -0.888  -4.220   0.588  0.00  0.00    -0.245 OA
BRANCH  13  15
ATOM     15  O   UNL     1       0.995  -4.186  -0.666  0.00  0.00    -0.477 OA
ATOM     16  H   UNL     1       1.552  -3.580  -1.191  0.00  0.00    +0.295 HD
ENDBRANCH  13  15
ENDBRANCH   6  13
TORSDOF 5
