REMARK  Name = opt6.xyz
REMARK  12 active torsions:
REMARK  status: ('A' for Active; 'I' for Inactive)
REMARK    1  A    between atoms: C_1  and  O_2
REMARK    2  A    between atoms: O_2  and  C_3
REMARK    3  A    between atoms: C_4  and  O_24
REMARK    4  A    between atoms: C_5  and  O_22
REMARK    5  A    between atoms: C_6  and  C_10
REMARK    6  A    between atoms: C_7  and  O_9
REMARK    7  A    between atoms: C_10  and  C_12
REMARK    8  A    between atoms: C_13  and  C_14
REMARK    9  A    between atoms: C_16  and  O_21
REMARK   10  A    between atoms: C_17  and  O_20
REMARK   11  A    between atoms: O_22  and  C_23
REMARK   12  A    between atoms: O_24  and  C_25
REMARK                            x       y       z     vdW  Elec       q    Type
REMARK                         _______ _______ _______ _____ _____    ______ ____
ROOT
ATOM      1  C   UNL     1       2.740   1.177   0.099  0.00  0.00    +0.169 A 
ATOM      2  C   UNL     1       2.102   2.425   0.208  0.00  0.00    +0.204 A 
ATOM      3  C   UNL     1       2.881   3.607   0.174  0.00  0.00    +0.180 A 
ATOM      4  C   UNL     1       4.289   3.522   0.096  0.00  0.00    +0.108 A 
ATOM      5  C   UNL     1       4.896   2.256   0.073  0.00  0.00    +0.135 A 
ATOM      6  C   UNL     1       4.133   1.095   0.066  0.00  0.00    +0.095 A 
ENDROOT
BRANCH   1   8
ATOM      7  C   UNL     1       2.148  -0.700  -1.126  0.00  0.00    +0.277 C 
ATOM      8  O   UNL     1       2.008   0.017   0.100  0.00  0.00    -0.491 OA
ENDBRANCH   1   8
BRANCH   2   9
ATOM      9  O   UNL     1       0.741   2.579   0.294  0.00  0.00    -0.488 OA
ATOM     10  C   UNL     1       0.037   1.634   1.092  0.00  0.00    +0.277 C 
ENDBRANCH   2   9
BRANCH   3  11
ATOM     11  O   UNL     1       2.343   4.861   0.362  0.00  0.00    -0.491 OA
ATOM     12  C   UNL     1       1.174   5.162  -0.398  0.00  0.00    +0.277 C 
ENDBRANCH   3  11
BRANCH   5  13
ATOM     13  O   UNL     1       6.256   2.074   0.056  0.00  0.00    -0.506 OA
ATOM     14  H   UNL     1       6.681   2.933   0.284  0.00  0.00    +0.292 HD
ENDBRANCH   5  13
BRANCH   4  15
ATOM     15  C   UNL     1       5.184   4.713   0.053  0.00  0.00    +0.193 C 
ATOM     16  O   UNL     1       6.322   4.621   0.512  0.00  0.00    -0.287 OA
BRANCH  15  17
ATOM     17  C   UNL     1       4.730   5.943  -0.643  0.00  0.00    +0.052 C 
ATOM     18  C   UNL     1       5.382   7.099  -0.454  0.00  0.00    +0.012 C 
BRANCH  18  19
ATOM     19  C   UNL     1       4.891   8.335  -1.061  0.00  0.00    -0.021 A 
ATOM     20  C   UNL     1       3.876   9.063  -0.420  0.00  0.00    +0.012 A 
ATOM     21  C   UNL     1       3.373  10.231  -0.996  0.00  0.00    +0.050 A 
ATOM     22  C   UNL     1       3.888  10.660  -2.209  0.00  0.00    +0.158 A 
ATOM     23  C   UNL     1       4.897   9.944  -2.851  0.00  0.00    +0.159 A 
ATOM     24  C   UNL     1       5.406   8.779  -2.286  0.00  0.00    +0.057 A 
BRANCH  22  25
ATOM     25  O   UNL     1       3.394  11.800  -2.775  0.00  0.00    -0.503 OA
ATOM     26  H   UNL     1       3.903  11.902  -3.604  0.00  0.00    +0.292 HD
ENDBRANCH  22  25
BRANCH  23  27
ATOM     27  O   UNL     1       5.354  10.427  -4.046  0.00  0.00    -0.503 OA
ATOM     28  H   UNL     1       6.063   9.839  -4.360  0.00  0.00    +0.292 HD
ENDBRANCH  23  27
ENDBRANCH  18  19
ENDBRANCH  15  17
ENDBRANCH   4  15
TORSDOF 9
