REMARK  Name = opt65.xyz
REMARK  5 active torsions:
REMARK  status: ('A' for Active; 'I' for Inactive)
REMARK    1  A    between atoms: C_3  and  O_13
REMARK    2  A    between atoms: C_4  and  O_12
REMARK    3  A    between atoms: C_6  and  C_7
REMARK    4  A    between atoms: C_8  and  C_9
REMARK    5  A    between atoms: C_9  and  O_11
REMARK                            x       y       z     vdW  Elec       q    Type
REMARK                         _______ _______ _______ _____ _____    ______ ____
ROOT
ATOM      1  C   UNL     1      -1.922   0.631  -0.024  0.00  0.00    +0.012 A 
ATOM      2  C   UNL     1      -0.725   1.357  -0.008  0.00  0.00    +0.050 A 
ATOM      3  C   UNL     1       0.480   0.670  -0.001  0.00  0.00    +0.158 A 
ATOM      4  C   UNL     1       0.494  -0.721  -0.002  0.00  0.00    +0.159 A 
ATOM      5  C   UNL     1      -0.690  -1.449  -0.014  0.00  0.00    +0.057 A 
ATOM      6  C   UNL     1      -1.918  -0.775  -0.041  0.00  0.00    -0.021 A 
ENDROOT
BRANCH   3   7
ATOM      7  O   UNL     1       1.684   1.318   0.014  0.00  0.00    -0.503 OA
ATOM      8  H   UNL     1       1.512   2.276   0.024  0.00  0.00    +0.292 HD
ENDBRANCH   3   7
BRANCH   4   9
ATOM      9  O   UNL     1       1.684  -1.391   0.015  0.00  0.00    -0.503 OA
ATOM     10  H   UNL     1       2.362  -0.686   0.031  0.00  0.00    +0.292 HD
ENDBRANCH   4   9
BRANCH   6  11
ATOM     11  C   UNL     1      -3.207  -1.482  -0.032  0.00  0.00    +0.015 C 
ATOM     12  C   UNL     1      -3.425  -2.660  -0.637  0.00  0.00    +0.092 C 
BRANCH  12  13
ATOM     13  C   UNL     1      -4.772  -3.263  -0.576  0.00  0.00    +0.330 C 
ATOM     14  O   UNL     1      -5.741  -2.743  -0.052  0.00  0.00    -0.246 OA
BRANCH  13  15
ATOM     15  O   UNL     1      -4.813  -4.470  -1.174  0.00  0.00    -0.478 OA
ATOM     16  H   UNL     1      -3.970  -4.786  -1.543  0.00  0.00    +0.295 HD
ENDBRANCH  13  15
ENDBRANCH  12  13
ENDBRANCH   6  11
TORSDOF 5
