REMARK  Name = opt74.xyz
REMARK  12 active torsions:
REMARK  status: ('A' for Active; 'I' for Inactive)
REMARK    1  A    between atoms: C_1  and  O_2
REMARK    2  A    between atoms: O_2  and  C_3
REMARK    3  A    between atoms: C_4  and  O_25
REMARK    4  A    between atoms: C_6  and  C_9
REMARK    5  A    between atoms: C_10  and  C_23
REMARK    6  A    between atoms: C_14  and  O_22
REMARK    7  A    between atoms: C_16  and  C_18
REMARK    8  A    between atoms: C_18  and  C_19
REMARK    9  A    between atoms: C_19  and  C_20
REMARK   10  A    between atoms: C_20  and  O_21
REMARK   11  A    between atoms: C_23  and  O_24
REMARK   12  A    between atoms: O_25  and  C_26
REMARK                            x       y       z     vdW  Elec       q    Type
REMARK                         _______ _______ _______ _____ _____    ______ ____
ROOT
ATOM      1  C   UNL     1       5.523   0.456   4.745  0.00  0.00    +0.214 C 
ATOM      2  O   UNL     1       4.861  -0.505   5.619  0.00  0.00    -0.480 OA
ATOM      3  C   UNL     1       5.362  -0.202   6.857  0.00  0.00    +0.166 A 
ATOM      4  C   UNL     1       5.217  -1.006   7.967  0.00  0.00    +0.159 A 
ATOM      5  C   UNL     1       5.770  -0.592   9.173  0.00  0.00    +0.052 A 
ATOM      6  C   UNL     1       6.465   0.635   9.253  0.00  0.00    -0.043 A 
ATOM      7  C   UNL     1       6.577   1.450   8.111  0.00  0.00    +0.011 A 
ATOM      8  C   UNL     1       6.020   1.013   6.919  0.00  0.00    +0.007 A 
ATOM      9  C   UNL     1       5.952   1.687   5.587  0.00  0.00    +0.093 C 
ENDROOT
BRANCH   1  13
ATOM     10  C   UNL     1       3.120   1.303   1.230  0.00  0.00    +0.162 A 
ATOM     11  C   UNL     1       2.517   0.909   2.431  0.00  0.00    +0.050 A 
ATOM     12  C   UNL     1       3.279   0.621   3.563  0.00  0.00    +0.011 A 
ATOM     13  C   UNL     1       4.671   0.735   3.524  0.00  0.00    -0.003 A 
ATOM     14  C   UNL     1       5.278   1.149   2.324  0.00  0.00    +0.056 A 
ATOM     15  C   UNL     1       4.518   1.420   1.172  0.00  0.00    +0.162 A 
BRANCH  10  17
ATOM     16  C   UNL     1       2.659   1.641  -1.097  0.00  0.00    +0.277 C 
ATOM     17  O   UNL     1       2.201   1.540   0.242  0.00  0.00    -0.491 OA
ENDBRANCH  10  17
BRANCH  15  18
ATOM     18  O   UNL     1       5.099   1.865   0.014  0.00  0.00    -0.491 OA
ATOM     19  C   UNL     1       6.418   1.399  -0.254  0.00  0.00    +0.277 C 
ENDBRANCH  15  18
ENDBRANCH   1  13
BRANCH   4  20
ATOM     20  O   UNL     1       4.556  -2.193   7.898  0.00  0.00    -0.503 OA
ATOM     21  H   UNL     1       4.273  -2.285   6.969  0.00  0.00    +0.292 HD
ENDBRANCH   4  20
BRANCH   6  22
ATOM     22  C   UNL     1       7.089   1.065  10.559  0.00  0.00    +0.037 C 
BRANCH  22  23
ATOM     23  C   UNL     1       8.238   0.163  11.017  0.00  0.00    +0.032 C 
BRANCH  23  24
ATOM     24  C   UNL     1       9.423   0.169  10.058  0.00  0.00    +0.156 C 
BRANCH  24  25
ATOM     25  O   UNL     1      10.470  -0.642  10.580  0.00  0.00    -0.395 OA
ATOM     26  H   UNL     1      10.721  -0.279  11.446  0.00  0.00    +0.209 HD
ENDBRANCH  24  25
ENDBRANCH  23  24
ENDBRANCH  22  23
ENDBRANCH   6  22
BRANCH   9  27
ATOM     27  C   UNL     1       4.966   2.858   5.602  0.00  0.00    +0.168 C 
BRANCH  27  28
ATOM     28  O   UNL     1       5.548   3.968   6.290  0.00  0.00    -0.394 OA
ATOM     29  H   UNL     1       4.872   4.668   6.314  0.00  0.00    +0.209 HD
ENDBRANCH  27  28
ENDBRANCH   9  27
TORSDOF 10
