REMARK  Name = opt70.xyz
REMARK  7 active torsions:
REMARK  status: ('A' for Active; 'I' for Inactive)
REMARK    1  A    between atoms: C_2  and  C_10
REMARK    2  A    between atoms: C_4  and  O_9
REMARK    3  A    between atoms: C_5  and  O_8
REMARK    4  A    between atoms: C_6  and  O_7
REMARK    5  A    between atoms: C_11  and  O_23
REMARK    6  A    between atoms: C_15  and  O_22
REMARK    7  A    between atoms: C_17  and  O_21
REMARK                            x       y       z     vdW  Elec       q    Type
REMARK                         _______ _______ _______ _____ _____    ______ ____
ROOT
ATOM      1  C   UNL     1       0.162  -3.630   0.143  0.00  0.00    +0.181 A 
ATOM      2  C   UNL     1       0.704  -4.251   1.209  0.00  0.00    +0.208 A 
ATOM      3  C   UNL     1       0.680  -5.739   1.228  0.00  0.00    +0.238 A 
ATOM      4  O   UNL     1       1.124  -6.406   2.160  0.00  0.00    -0.283 OA
ATOM      5  C   UNL     1       0.096  -6.415   0.062  0.00  0.00    +0.109 A 
ATOM      6  C   UNL     1       0.052  -7.812  -0.031  0.00  0.00    +0.135 A 
ATOM      7  C   UNL     1      -0.505  -8.426  -1.150  0.00  0.00    +0.091 A 
ATOM      8  C   UNL     1      -1.018  -7.634  -2.173  0.00  0.00    +0.124 A 
ATOM      9  C   UNL     1      -0.983  -6.245  -2.091  0.00  0.00    +0.092 A 
ATOM     10  C   UNL     1      -0.422  -5.636  -0.968  0.00  0.00    +0.147 A 
ATOM     11  O   UNL     1      -0.413  -4.266  -0.943  0.00  0.00    -0.451 OA
ENDROOT
BRANCH   1  13
ATOM     12  C   UNL     1       1.160  -1.488  -0.624  0.00  0.00    +0.061 A 
ATOM     13  C   UNL     1       0.120  -2.167   0.029  0.00  0.00    +0.028 A 
ATOM     14  C   UNL     1      -0.948  -1.446   0.592  0.00  0.00    +0.061 A 
ATOM     15  C   UNL     1      -0.961  -0.057   0.498  0.00  0.00    +0.163 A 
ATOM     16  C   UNL     1       0.075   0.610  -0.146  0.00  0.00    +0.201 A 
ATOM     17  C   UNL     1       1.127  -0.103  -0.704  0.00  0.00    +0.163 A 
BRANCH  15  18
ATOM     18  O   UNL     1      -1.970   0.698   1.028  0.00  0.00    -0.503 OA
ATOM     19  H   UNL     1      -2.634   0.102   1.416  0.00  0.00    +0.292 HD
ENDBRANCH  15  18
BRANCH  16  20
ATOM     20  O   UNL     1       0.074   1.975  -0.238  0.00  0.00    -0.501 OA
ATOM     21  H   UNL     1      -0.751   2.249   0.213  0.00  0.00    +0.292 HD
ENDBRANCH  16  20
BRANCH  17  22
ATOM     22  O   UNL     1       2.144   0.555  -1.332  0.00  0.00    -0.503 OA
ATOM     23  H   UNL     1       1.902   1.502  -1.274  0.00  0.00    +0.292 HD
ENDBRANCH  17  22
ENDBRANCH   1  13
BRANCH   2  24
ATOM     24  O   UNL     1       1.282  -3.605   2.288  0.00  0.00    -0.501 OA
ATOM     25  H   UNL     1       1.328  -2.651   2.109  0.00  0.00    +0.292 HD
ENDBRANCH   2  24
BRANCH   6  26
ATOM     26  O   UNL     1       0.541  -8.640   0.944  0.00  0.00    -0.506 OA
ATOM     27  H   UNL     1       0.900  -8.079   1.671  0.00  0.00    +0.292 HD
ENDBRANCH   6  26
BRANCH   8  28
ATOM     28  O   UNL     1      -1.572  -8.189  -3.288  0.00  0.00    -0.507 OA
ATOM     29  H   UNL     1      -1.515  -9.157  -3.219  0.00  0.00    +0.292 HD
ENDBRANCH   8  28
TORSDOF 7
