REMARK  Name = opt73.xyz
REMARK  7 active torsions:
REMARK  status: ('A' for Active; 'I' for Inactive)
REMARK    1  A    between atoms: C_1  and  O_2
REMARK    2  A    between atoms: O_2  and  C_3
REMARK    3  A    between atoms: C_5  and  O_12
REMARK    4  A    between atoms: C_6  and  O_11
REMARK    5  A    between atoms: C_7  and  O_9
REMARK    6  A    between atoms: O_9  and  C_10
REMARK    7  A    between atoms: O_12  and  C_13
REMARK                            x       y       z     vdW  Elec       q    Type
REMARK                         _______ _______ _______ _____ _____    ______ ____
ROOT
ATOM      1  C   UNL     1       2.993   1.265  -0.008  0.00  0.00    +0.127 A 
ATOM      2  C   UNL     1       2.322   2.488  -0.003  0.00  0.00    +0.095 A 
ATOM      3  C   UNL     1       3.051   3.679  -0.019  0.00  0.00    +0.168 A 
ATOM      4  C   UNL     1       4.460   3.641  -0.040  0.00  0.00    +0.201 A 
ATOM      5  C   UNL     1       5.144   2.425  -0.044  0.00  0.00    +0.168 A 
ATOM      6  C   UNL     1       4.392   1.245  -0.027  0.00  0.00    +0.095 A 
ENDROOT
BRANCH   1   8
ATOM      7  C   UNL     1       0.989  -0.024   0.023  0.00  0.00    +0.277 C 
ATOM      8  O   UNL     1       2.409   0.027   0.006  0.00  0.00    -0.495 OA
ENDBRANCH   1   8
BRANCH   3   9
ATOM      9  O   UNL     1       2.516   4.947  -0.018  0.00  0.00    -0.491 OA
ATOM     10  C   UNL     1       1.097   5.048   0.004  0.00  0.00    +0.277 C 
ENDBRANCH   3   9
BRANCH   5  11
ATOM     11  O   UNL     1       6.493   2.202  -0.062  0.00  0.00    -0.491 OA
ATOM     12  C   UNL     1       7.358   3.328  -0.077  0.00  0.00    +0.277 C 
ENDBRANCH   5  11
BRANCH   4  13
ATOM     13  O   UNL     1       5.118   4.846  -0.055  0.00  0.00    -0.501 OA
ATOM     14  H   UNL     1       4.413   5.522  -0.049  0.00  0.00    +0.292 HD
ENDBRANCH   4  13
TORSDOF 4
