REMARK  Name = opt7.xyz
REMARK  8 active torsions:
REMARK  status: ('A' for Active; 'I' for Inactive)
REMARK    1  A    between atoms: C_1  and  O_2
REMARK    2  A    between atoms: O_2  and  C_3
REMARK    3  A    between atoms: C_7  and  C_9
REMARK    4  A    between atoms: C_14  and  O_15
REMARK    5  A    between atoms: O_15  and  C_16
REMARK    6  A    between atoms: C_18  and  O_19
REMARK    7  A    between atoms: O_19  and  C_20
REMARK    8  A    between atoms: C_21  and  O_24
REMARK                            x       y       z     vdW  Elec       q    Type
REMARK                         _______ _______ _______ _____ _____    ______ ____
ROOT
ATOM      1  C   UNL     1       6.323  -1.013  -3.092  0.00  0.00    +0.211 C 
ATOM      2  O   UNL     1       7.181  -0.121  -3.812  0.00  0.00    -0.479 OA
ATOM      3  C   UNL     1       8.395  -0.685  -4.115  0.00  0.00    +0.180 A 
ATOM      4  C   UNL     1       8.580  -2.061  -4.283  0.00  0.00    +0.105 A 
ATOM      5  C   UNL     1       7.376  -2.933  -4.195  0.00  0.00    +0.174 C 
ATOM      6  O   UNL     1       7.425  -4.145  -4.378  0.00  0.00    -0.292 OA
ATOM      7  C   UNL     1       9.868  -2.546  -4.567  0.00  0.00    +0.138 A 
ATOM      8  C   UNL     1      10.945  -1.662  -4.739  0.00  0.00    +0.096 A 
ATOM      9  C   UNL     1      10.754  -0.289  -4.601  0.00  0.00    +0.168 A 
ATOM     10  C   UNL     1       9.474   0.185  -4.292  0.00  0.00    +0.202 A 
ATOM     11  C   UNL     1       6.061  -2.255  -3.922  0.00  0.00    +0.129 C 
ENDROOT
BRANCH   1  14
ATOM     12  C   UNL     1       3.204   0.141  -1.204  0.00  0.00    +0.120 A 
ATOM     13  C   UNL     1       4.402  -0.503  -1.529  0.00  0.00    +0.053 A 
ATOM     14  C   UNL     1       5.028  -0.294  -2.768  0.00  0.00    -0.003 A 
ATOM     15  C   UNL     1       4.417   0.565  -3.691  0.00  0.00    +0.007 A 
ATOM     16  C   UNL     1       3.219   1.206  -3.375  0.00  0.00    +0.004 A 
ATOM     17  C   UNL     1       2.613   0.996  -2.134  0.00  0.00    +0.045 A 
BRANCH  12  19
ATOM     18  C   UNL     1       1.559   0.557   0.459  0.00  0.00    +0.277 C 
ATOM     19  O   UNL     1       2.719  -0.152   0.041  0.00  0.00    -0.495 OA
ENDBRANCH  12  19
ENDBRANCH   1  14
BRANCH   9  20
ATOM     20  O   UNL     1      11.711   0.682  -4.742  0.00  0.00    -0.491 OA
ATOM     21  C   UNL     1      13.036   0.242  -5.019  0.00  0.00    +0.277 C 
ENDBRANCH   9  20
BRANCH   7  22
ATOM     22  O   UNL     1      10.151  -3.866  -4.796  0.00  0.00    -0.494 OA
ATOM     23  C   UNL     1      10.172  -4.633  -3.590  0.00  0.00    +0.277 C 
ENDBRANCH   7  22
BRANCH  10  24
ATOM     24  O   UNL     1       9.281   1.538  -4.153  0.00  0.00    -0.501 OA
ATOM     25  H   UNL     1      10.148   1.947  -4.336  0.00  0.00    +0.292 HD
ENDBRANCH  10  24
TORSDOF 5
