REMARK  Name = opt72.xyz
REMARK  13 active torsions:
REMARK  status: ('A' for Active; 'I' for Inactive)
REMARK    1  A    between atoms: C_1  and  O_2
REMARK    2  A    between atoms: O_2  and  C_3
REMARK    3  A    between atoms: C_4  and  O_26
REMARK    4  A    between atoms: C_6  and  C_9
REMARK    5  A    between atoms: C_10  and  C_24
REMARK    6  A    between atoms: C_14  and  O_22
REMARK    7  A    between atoms: C_16  and  C_18
REMARK    8  A    between atoms: C_18  and  C_19
REMARK    9  A    between atoms: C_19  and  C_20
REMARK   10  A    between atoms: C_20  and  O_21
REMARK   11  A    between atoms: O_22  and  C_23
REMARK   12  A    between atoms: C_24  and  O_25
REMARK   13  A    between atoms: O_26  and  C_27
REMARK                            x       y       z     vdW  Elec       q    Type
REMARK                         _______ _______ _______ _____ _____    ______ ____
ROOT
ATOM      1  C   UNL     1       5.078   4.974  -1.159  0.00  0.00    +0.214 C 
ATOM      2  O   UNL     1       4.673   5.698   0.032  0.00  0.00    -0.480 OA
ATOM      3  C   UNL     1       5.008   7.001  -0.266  0.00  0.00    +0.166 A 
ATOM      4  C   UNL     1       5.158   8.037   0.638  0.00  0.00    +0.162 A 
ATOM      5  C   UNL     1       5.561   9.279   0.126  0.00  0.00    +0.053 A 
ATOM      6  C   UNL     1       5.815   9.477  -1.249  0.00  0.00    -0.043 A 
ATOM      7  C   UNL     1       5.589   8.420  -2.142  0.00  0.00    +0.011 A 
ATOM      8  C   UNL     1       5.198   7.190  -1.637  0.00  0.00    +0.007 A 
ATOM      9  C   UNL     1       4.870   5.919  -2.355  0.00  0.00    +0.093 C 
ENDROOT
BRANCH   1  13
ATOM     10  C   UNL     1       2.985   1.185  -1.422  0.00  0.00    +0.162 A 
ATOM     11  C   UNL     1       2.277   2.384  -1.255  0.00  0.00    +0.050 A 
ATOM     12  C   UNL     1       2.937   3.609  -1.159  0.00  0.00    +0.011 A 
ATOM     13  C   UNL     1       4.329   3.663  -1.245  0.00  0.00    -0.003 A 
ATOM     14  C   UNL     1       5.039   2.463  -1.426  0.00  0.00    +0.056 A 
ATOM     15  C   UNL     1       4.386   1.222  -1.504  0.00  0.00    +0.162 A 
BRANCH  10  17
ATOM     16  C   UNL     1       2.726  -1.196  -1.332  0.00  0.00    +0.277 C 
ATOM     17  O   UNL     1       2.157   0.094  -1.495  0.00  0.00    -0.491 OA
ENDBRANCH  10  17
BRANCH  15  18
ATOM     18  O   UNL     1       5.070   0.055  -1.723  0.00  0.00    -0.491 OA
ATOM     19  C   UNL     1       6.419   0.006  -1.270  0.00  0.00    +0.277 C 
ENDBRANCH  15  18
ENDBRANCH   1  13
BRANCH   4  20
ATOM     20  O   UNL     1       4.987   8.017   1.992  0.00  0.00    -0.491 OA
ATOM     21  C   UNL     1       4.573   6.791   2.579  0.00  0.00    +0.277 C 
ENDBRANCH   4  20
BRANCH   6  22
ATOM     22  C   UNL     1       6.283  10.815  -1.774  0.00  0.00    +0.037 C 
BRANCH  22  23
ATOM     23  C   UNL     1       7.411  11.481  -0.978  0.00  0.00    +0.032 C 
BRANCH  23  24
ATOM     24  C   UNL     1       8.689  10.651  -0.927  0.00  0.00    +0.156 C 
BRANCH  24  25
ATOM     25  O   UNL     1       9.689  11.351  -0.194  0.00  0.00    -0.395 OA
ATOM     26  H   UNL     1       9.835  12.205  -0.633  0.00  0.00    +0.209 HD
ENDBRANCH  24  25
ENDBRANCH  23  24
ENDBRANCH  22  23
ENDBRANCH   6  22
BRANCH   9  27
ATOM     27  C   UNL     1       5.751   5.557  -3.545  0.00  0.00    +0.168 C 
BRANCH  27  28
ATOM     28  O   UNL     1       5.398   6.350  -4.677  0.00  0.00    -0.394 OA
ATOM     29  H   UNL     1       5.905   6.012  -5.435  0.00  0.00    +0.209 HD
ENDBRANCH  27  28
ENDBRANCH   9  27
TORSDOF 10
