REMARK  Name = opt78.xyz
REMARK  7 active torsions:
REMARK  status: ('A' for Active; 'I' for Inactive)
REMARK    1  A    between atoms: C_2  and  O_22
REMARK    2  A    between atoms: C_3  and  C_13
REMARK    3  A    between atoms: C_7  and  O_12
REMARK    4  A    between atoms: C_9  and  O_11
REMARK    5  A    between atoms: C_15  and  O_21
REMARK    6  A    between atoms: C_16  and  O_20
REMARK    7  A    between atoms: C_17  and  O_19
REMARK                            x       y       z     vdW  Elec       q    Type
REMARK                         _______ _______ _______ _____ _____    ______ ____
ROOT
ATOM      1  C   UNL     1      -1.260   1.640   0.034  0.00  0.00    +0.078 C 
ATOM      2  C   UNL     1      -0.028   0.782   0.000  0.00  0.00    +0.038 A 
ATOM      3  C   UNL     1       1.246   1.361   0.031  0.00  0.00    +0.127 A 
ATOM      4  C   UNL     1       2.397   0.578  -0.005  0.00  0.00    +0.091 A 
ATOM      5  C   UNL     1       2.273  -0.805  -0.069  0.00  0.00    +0.124 A 
ATOM      6  C   UNL     1       1.021  -1.409  -0.086  0.00  0.00    +0.091 A 
ATOM      7  C   UNL     1      -0.126  -0.614  -0.034  0.00  0.00    +0.132 A 
ATOM      8  O   UNL     1      -1.316  -1.291  -0.050  0.00  0.00    -0.481 OA
ATOM      9  C   UNL     1      -2.447  -0.523   0.391  0.00  0.00    +0.232 C 
ATOM     10  C   UNL     1      -2.516   0.844  -0.320  0.00  0.00    +0.164 C 
ENDROOT
BRANCH   9  11
ATOM     11  C   UNL     1      -3.686  -1.372   0.148  0.00  0.00    +0.002 A 
ATOM     12  C   UNL     1      -4.521  -1.715   1.228  0.00  0.00    +0.056 A 
ATOM     13  C   UNL     1      -5.659  -2.480   1.010  0.00  0.00    +0.162 A 
ATOM     14  C   UNL     1      -5.981  -2.914  -0.267  0.00  0.00    +0.201 A 
ATOM     15  C   UNL     1      -5.164  -2.589  -1.342  0.00  0.00    +0.162 A 
ATOM     16  C   UNL     1      -4.017  -1.825  -1.146  0.00  0.00    +0.056 A 
BRANCH  13  17
ATOM     17  O   UNL     1      -6.462  -2.802   2.066  0.00  0.00    -0.503 OA
ATOM     18  H   UNL     1      -7.185  -3.330   1.669  0.00  0.00    +0.292 HD
ENDBRANCH  13  17
BRANCH  14  19
ATOM     19  O   UNL     1      -7.112  -3.663  -0.452  0.00  0.00    -0.501 OA
ATOM     20  H   UNL     1      -7.124  -3.837  -1.416  0.00  0.00    +0.292 HD
ENDBRANCH  14  19
BRANCH  15  21
ATOM     21  O   UNL     1      -5.529  -3.044  -2.579  0.00  0.00    -0.503 OA
ATOM     22  H   UNL     1      -4.877  -2.718  -3.224  0.00  0.00    +0.292 HD
ENDBRANCH  15  21
ENDBRANCH   9  11
BRANCH   3  23
ATOM     23  O   UNL     1       1.344   2.723   0.098  0.00  0.00    -0.506 OA
ATOM     24  H   UNL     1       2.284   2.969   0.104  0.00  0.00    +0.292 HD
ENDBRANCH   3  23
BRANCH   5  25
ATOM     25  O   UNL     1       3.420  -1.542  -0.107  0.00  0.00    -0.507 OA
ATOM     26  H   UNL     1       3.183  -2.485  -0.140  0.00  0.00    +0.292 HD
ENDBRANCH   5  25
BRANCH  10  27
ATOM     27  O   UNL     1      -3.670   1.608   0.047  0.00  0.00    -0.387 OA
ATOM     28  H   UNL     1      -3.736   1.623   1.017  0.00  0.00    +0.210 HD
ENDBRANCH  10  27
TORSDOF 7
