REMARK  Name = opt71.xyz
REMARK  6 active torsions:
REMARK  status: ('A' for Active; 'I' for Inactive)
REMARK    1  A    between atoms: C_3  and  O_22
REMARK    2  A    between atoms: C_4  and  O_21
REMARK    3  A    between atoms: C_6  and  C_7
REMARK    4  A    between atoms: C_8  and  O_20
REMARK    5  A    between atoms: C_12  and  O_19
REMARK    6  A    between atoms: C_14  and  O_18
REMARK                            x       y       z     vdW  Elec       q    Type
REMARK                         _______ _______ _______ _____ _____    ______ ____
ROOT
ATOM      1  C   UNL     1      -3.332  -1.307  -0.128  0.00  0.00    +0.181 A 
ATOM      2  O   UNL     1      -3.612  -2.099   0.971  0.00  0.00    -0.451 OA
ATOM      3  C   UNL     1      -4.814  -2.757   1.012  0.00  0.00    +0.147 A 
ATOM      4  C   UNL     1      -5.066  -3.546   2.134  0.00  0.00    +0.092 A 
ATOM      5  C   UNL     1      -6.274  -4.231   2.235  0.00  0.00    +0.124 A 
ATOM      6  C   UNL     1      -7.236  -4.140   1.233  0.00  0.00    +0.091 A 
ATOM      7  C   UNL     1      -6.977  -3.351   0.114  0.00  0.00    +0.135 A 
ATOM      8  C   UNL     1      -5.765  -2.659   0.000  0.00  0.00    +0.109 A 
ATOM      9  C   UNL     1      -5.465  -1.821  -1.168  0.00  0.00    +0.238 A 
ATOM     10  O   UNL     1      -6.290  -1.718  -2.072  0.00  0.00    -0.283 OA
ATOM     11  C   UNL     1      -4.150  -1.125  -1.184  0.00  0.00    +0.208 A 
ENDROOT
BRANCH   1  17
ATOM     12  C   UNL     1      -1.923   0.605   0.612  0.00  0.00    +0.015 A 
ATOM     13  C   UNL     1      -0.694   1.268   0.683  0.00  0.00    +0.050 A 
ATOM     14  C   UNL     1       0.425   0.679   0.110  0.00  0.00    +0.158 A 
ATOM     15  C   UNL     1       0.324  -0.557  -0.524  0.00  0.00    +0.159 A 
ATOM     16  C   UNL     1      -0.890  -1.226  -0.599  0.00  0.00    +0.060 A 
ATOM     17  C   UNL     1      -2.027  -0.641  -0.030  0.00  0.00    +0.025 A 
BRANCH  14  18
ATOM     18  O   UNL     1       1.653   1.278   0.140  0.00  0.00    -0.503 OA
ATOM     19  H   UNL     1       1.572   2.120   0.621  0.00  0.00    +0.292 HD
ENDBRANCH  14  18
BRANCH  15  20
ATOM     20  O   UNL     1       1.430  -1.126  -1.087  0.00  0.00    -0.503 OA
ATOM     21  H   UNL     1       2.155  -0.495  -0.905  0.00  0.00    +0.292 HD
ENDBRANCH  15  20
ENDBRANCH   1  17
BRANCH   5  22
ATOM     22  O   UNL     1      -6.481  -4.990   3.348  0.00  0.00    -0.507 OA
ATOM     23  H   UNL     1      -7.354  -5.413   3.282  0.00  0.00    +0.292 HD
ENDBRANCH   5  22
BRANCH   7  24
ATOM     24  O   UNL     1      -7.959  -3.297  -0.838  0.00  0.00    -0.506 OA
ATOM     25  H   UNL     1      -7.646  -2.712  -1.567  0.00  0.00    +0.292 HD
ENDBRANCH   7  24
BRANCH  11  26
ATOM     26  O   UNL     1      -3.860  -0.328  -2.277  0.00  0.00    -0.501 OA
ATOM     27  H   UNL     1      -2.957   0.024  -2.190  0.00  0.00    +0.292 HD
ENDBRANCH  11  26
TORSDOF 6
