REMARK  Name = opt79.xyz
REMARK  11 active torsions:
REMARK  status: ('A' for Active; 'I' for Inactive)
REMARK    1  A    between atoms: C_3  and  O_31
REMARK    2  A    between atoms: C_4  and  O_30
REMARK    3  A    between atoms: C_6  and  C_7
REMARK    4  A    between atoms: C_8  and  O_20
REMARK    5  A    between atoms: C_12  and  O_19
REMARK    6  A    between atoms: C_14  and  O_18
REMARK    7  A    between atoms: O_20  and  C_21
REMARK    8  A    between atoms: C_22  and  O_29
REMARK    9  A    between atoms: C_23  and  O_28
REMARK   10  A    between atoms: C_24  and  C_26
REMARK   11  A    between atoms: C_26  and  O_27
REMARK                            x       y       z     vdW  Elec       q    Type
REMARK                         _______ _______ _______ _____ _____    ______ ____
ROOT
ATOM      1  C   UNL     1      -3.415  -1.407   0.179  0.00  0.00    +0.181 A 
ATOM      2  O   UNL     1      -3.713  -2.370   1.134  0.00  0.00    -0.451 OA
ATOM      3  C   UNL     1      -4.925  -2.999   1.095  0.00  0.00    +0.147 A 
ATOM      4  C   UNL     1      -5.184  -3.938   2.094  0.00  0.00    +0.092 A 
ATOM      5  C   UNL     1      -6.407  -4.601   2.112  0.00  0.00    +0.124 A 
ATOM      6  C   UNL     1      -7.371  -4.351   1.141  0.00  0.00    +0.091 A 
ATOM      7  C   UNL     1      -7.105  -3.409   0.149  0.00  0.00    +0.135 A 
ATOM      8  C   UNL     1      -5.882  -2.727   0.128  0.00  0.00    +0.109 A 
ATOM      9  C   UNL     1      -5.588  -1.691  -0.869  0.00  0.00    +0.238 A 
ATOM     10  O   UNL     1      -6.471  -1.358  -1.654  0.00  0.00    -0.283 OA
ATOM     11  C   UNL     1      -4.241  -1.053  -0.831  0.00  0.00    +0.214 A 
ENDROOT
BRANCH   1  17
ATOM     12  C   UNL     1      -1.847   0.579   0.312  0.00  0.00    +0.015 A 
ATOM     13  C   UNL     1      -0.589   1.131   0.592  0.00  0.00    +0.050 A 
ATOM     14  C   UNL     1       0.444   0.295   0.991  0.00  0.00    +0.158 A 
ATOM     15  C   UNL     1       0.230  -1.075   1.103  0.00  0.00    +0.159 A 
ATOM     16  C   UNL     1      -1.011  -1.630   0.815  0.00  0.00    +0.060 A 
ATOM     17  C   UNL     1      -2.075  -0.807   0.408  0.00  0.00    +0.025 A 
BRANCH  14  18
ATOM     18  O   UNL     1       1.688   0.772   1.294  0.00  0.00    -0.503 OA
ATOM     19  H   UNL     1       1.681   1.737   1.166  0.00  0.00    +0.292 HD
ENDBRANCH  14  18
BRANCH  15  20
ATOM     20  O   UNL     1       1.245  -1.891   1.515  0.00  0.00    -0.503 OA
ATOM     21  H   UNL     1       1.996  -1.286   1.674  0.00  0.00    +0.292 HD
ENDBRANCH  15  20
ENDBRANCH   1  17
BRANCH   5  22
ATOM     22  O   UNL     1      -6.628  -5.496   3.117  0.00  0.00    -0.507 OA
ATOM     23  H   UNL     1      -7.529  -5.851   3.030  0.00  0.00    +0.292 HD
ENDBRANCH   5  22
BRANCH   7  24
ATOM     24  O   UNL     1      -8.095  -3.195  -0.772  0.00  0.00    -0.506 OA
ATOM     25  H   UNL     1      -7.804  -2.465  -1.363  0.00  0.00    +0.292 HD
ENDBRANCH   7  24
BRANCH  11  26
ATOM     26  O   UNL     1      -3.912  -0.049  -1.720  0.00  0.00    -0.453 OA
BRANCH  26  27
ATOM     27  C   UNL     1      -4.166  -0.237  -3.116  0.00  0.00    +0.340 C 
ATOM     28  O   UNL     1      -4.333  -1.590  -3.570  0.00  0.00    -0.331 OA
ATOM     29  C   UNL     1      -5.226  -1.543  -4.696  0.00  0.00    +0.179 C 
ATOM     30  C   UNL     1      -6.163  -0.349  -4.477  0.00  0.00    +0.180 C 
ATOM     31  C   UNL     1      -5.357   0.604  -3.602  0.00  0.00    +0.214 C 
BRANCH  30  32
ATOM     32  O   UNL     1      -6.636   0.324  -5.647  0.00  0.00    -0.386 OA
ATOM     33  H   UNL     1      -6.524  -0.286  -6.409  0.00  0.00    +0.210 HD
ENDBRANCH  30  32
BRANCH  31  34
ATOM     34  O   UNL     1      -4.909   1.730  -4.375  0.00  0.00    -0.383 OA
ATOM     35  H   UNL     1      -5.609   1.853  -5.053  0.00  0.00    +0.210 HD
ENDBRANCH  31  34
BRANCH  29  36
ATOM     36  C   UNL     1      -4.441  -1.480  -6.009  0.00  0.00    +0.190 C 
BRANCH  36  37
ATOM     37  O   UNL     1      -5.340  -1.578  -7.115  0.00  0.00    -0.392 OA
ATOM     38  H   UNL     1      -5.390  -2.521  -7.359  0.00  0.00    +0.210 HD
ENDBRANCH  36  37
ENDBRANCH  29  36
ENDBRANCH  26  27
ENDBRANCH  11  26
TORSDOF 11
