REMARK  Name = opt82.xyz
REMARK  11 active torsions:
REMARK  status: ('A' for Active; 'I' for Inactive)
REMARK    1  A    between atoms: C_3  and  O_32
REMARK    2  A    between atoms: C_4  and  O_31
REMARK    3  A    between atoms: C_6  and  C_7
REMARK    4  A    between atoms: C_15  and  O_30
REMARK    5  A    between atoms: C_17  and  O_18
REMARK    6  A    between atoms: O_18  and  C_19
REMARK    7  A    between atoms: C_20  and  O_29
REMARK    8  A    between atoms: C_21  and  O_28
REMARK    9  A    between atoms: C_22  and  O_27
REMARK   10  A    between atoms: C_23  and  C_25
REMARK   11  A    between atoms: C_25  and  O_26
REMARK                            x       y       z     vdW  Elec       q    Type
REMARK                         _______ _______ _______ _____ _____    ______ ____
ROOT
ATOM      1  C   UNL     1      -3.025  -1.207  -0.241  0.00  0.00    +0.139 A 
ATOM      2  O   UNL     1      -3.268  -1.816   0.971  0.00  0.00    -0.454 OA
ATOM      3  C   UNL     1      -4.498  -2.385   1.179  0.00  0.00    +0.146 A 
ATOM      4  C   UNL     1      -4.703  -2.929   2.447  0.00  0.00    +0.092 A 
ATOM      5  C   UNL     1      -5.938  -3.479   2.750  0.00  0.00    +0.124 A 
ATOM      6  C   UNL     1      -6.969  -3.489   1.813  0.00  0.00    +0.092 A 
ATOM      7  C   UNL     1      -6.761  -2.975   0.527  0.00  0.00    +0.142 A 
ATOM      8  C   UNL     1      -5.506  -2.421   0.209  0.00  0.00    +0.106 A 
ATOM      9  C   UNL     1      -5.178  -1.882  -1.136  0.00  0.00    +0.197 A 
ATOM     10  O   UNL     1      -5.911  -1.976  -2.111  0.00  0.00    -0.287 OA
ATOM     11  C   UNL     1      -3.873  -1.206  -1.276  0.00  0.00    +0.098 A 
ENDROOT
BRANCH   1  17
ATOM     12  C   UNL     1      -1.541   0.634   0.502  0.00  0.00    +0.015 A 
ATOM     13  C   UNL     1      -0.310   1.296   0.517  0.00  0.00    +0.050 A 
ATOM     14  C   UNL     1       0.728   0.803  -0.263  0.00  0.00    +0.158 A 
ATOM     15  C   UNL     1       0.538  -0.327  -1.056  0.00  0.00    +0.159 A 
ATOM     16  C   UNL     1      -0.684  -0.987  -1.084  0.00  0.00    +0.060 A 
ATOM     17  C   UNL     1      -1.736  -0.510  -0.294  0.00  0.00    +0.021 A 
BRANCH  14  18
ATOM     18  O   UNL     1       1.961   1.393  -0.279  0.00  0.00    -0.503 OA
ATOM     19  H   UNL     1       1.944   2.150   0.331  0.00  0.00    +0.292 HD
ENDBRANCH  14  18
BRANCH  15  20
ATOM     20  O   UNL     1       1.571  -0.807  -1.810  0.00  0.00    -0.503 OA
ATOM     21  H   UNL     1       2.317  -0.204  -1.620  0.00  0.00    +0.292 HD
ENDBRANCH  15  20
ENDBRANCH   1  17
BRANCH   5  22
ATOM     22  O   UNL     1      -6.193  -4.020   3.974  0.00  0.00    -0.507 OA
ATOM     23  H   UNL     1      -5.378  -4.017   4.504  0.00  0.00    +0.292 HD
ENDBRANCH   5  22
BRANCH   7  24
ATOM     24  O   UNL     1      -7.729  -2.943  -0.437  0.00  0.00    -0.460 OA
BRANCH  24  25
ATOM     25  C   UNL     1      -8.850  -3.825  -0.354  0.00  0.00    +0.339 C 
ATOM     26  C   UNL     1      -8.456  -5.306  -0.558  0.00  0.00    +0.214 C 
ATOM     27  C   UNL     1      -7.949  -5.509  -1.993  0.00  0.00    +0.180 C 
ATOM     28  C   UNL     1      -8.994  -5.028  -3.008  0.00  0.00    +0.177 C 
ATOM     29  C   UNL     1      -9.375  -3.569  -2.693  0.00  0.00    +0.179 C 
ATOM     30  O   UNL     1      -9.833  -3.436  -1.337  0.00  0.00    -0.331 OA
BRANCH  26  31
ATOM     31  O   UNL     1      -9.580  -6.171  -0.296  0.00  0.00    -0.383 OA
ATOM     32  H   UNL     1     -10.204  -6.043  -1.046  0.00  0.00    +0.210 HD
ENDBRANCH  26  31
BRANCH  27  33
ATOM     33  O   UNL     1      -7.664  -6.896  -2.213  0.00  0.00    -0.386 OA
ATOM     34  H   UNL     1      -8.495  -7.364  -1.992  0.00  0.00    +0.210 HD
ENDBRANCH  27  33
BRANCH  28  35
ATOM     35  O   UNL     1     -10.152  -5.886  -2.902  0.00  0.00    -0.386 OA
ATOM     36  H   UNL     1     -10.643  -5.776  -3.741  0.00  0.00    +0.210 HD
ENDBRANCH  28  35
BRANCH  29  37
ATOM     37  C   UNL     1     -10.496  -3.057  -3.605  0.00  0.00    +0.190 C 
BRANCH  37  38
ATOM     38  O   UNL     1     -10.170  -3.215  -4.980  0.00  0.00    -0.392 OA
ATOM     39  H   UNL     1      -9.512  -2.531  -5.200  0.00  0.00    +0.210 HD
ENDBRANCH  37  38
ENDBRANCH  29  37
ENDBRANCH  24  25
ENDBRANCH   7  24
TORSDOF 11
