REMARK  Name = opt8.xyz
REMARK  9 active torsions:
REMARK  status: ('A' for Active; 'I' for Inactive)
REMARK    1  A    between atoms: C_1  and  O_2
REMARK    2  A    between atoms: O_2  and  C_3
REMARK    3  A    between atoms: C_5  and  O_21
REMARK    4  A    between atoms: C_6  and  O_20
REMARK    5  A    between atoms: C_7  and  O_19
REMARK    6  A    between atoms: C_8  and  C_9
REMARK    7  A    between atoms: C_9  and  C_11
REMARK    8  A    between atoms: C_12  and  C_13
REMARK    9  A    between atoms: O_21  and  C_22
REMARK                            x       y       z     vdW  Elec       q    Type
REMARK                         _______ _______ _______ _____ _____    ______ ____
ROOT
ATOM      1  C   UNL     1       3.268   1.181  -0.366  0.00  0.00    +0.138 A 
ATOM      2  C   UNL     1       2.907   2.535  -0.527  0.00  0.00    +0.108 A 
ATOM      3  C   UNL     1       3.636   3.342  -1.403  0.00  0.00    +0.177 A 
ATOM      4  C   UNL     1       4.701   2.804  -2.118  0.00  0.00    +0.202 A 
ATOM      5  C   UNL     1       5.059   1.462  -1.994  0.00  0.00    +0.168 A 
ATOM      6  C   UNL     1       4.337   0.651  -1.114  0.00  0.00    +0.096 A 
ENDROOT
BRANCH   1   8
ATOM      7  C   UNL     1       3.001  -0.844   0.890  0.00  0.00    +0.277 C 
ATOM      8  O   UNL     1       2.549   0.459   0.551  0.00  0.00    -0.494 OA
ENDBRANCH   1   8
BRANCH   2   9
ATOM      9  C   UNL     1       1.746   3.088   0.211  0.00  0.00    +0.193 C 
ATOM     10  O   UNL     1       0.639   2.567   0.130  0.00  0.00    -0.287 OA
BRANCH   9  11
ATOM     11  C   UNL     1       2.008   4.291   1.049  0.00  0.00    +0.052 C 
ATOM     12  C   UNL     1       1.003   4.886   1.708  0.00  0.00    +0.012 C 
BRANCH  12  13
ATOM     13  C   UNL     1       1.184   6.098   2.516  0.00  0.00    -0.025 A 
ATOM     14  C   UNL     1       0.504   6.215   3.735  0.00  0.00    +0.008 A 
ATOM     15  C   UNL     1       0.635   7.369   4.511  0.00  0.00    +0.001 A 
ATOM     16  C   UNL     1       1.435   8.422   4.070  0.00  0.00    +0.000 A 
ATOM     17  C   UNL     1       2.101   8.324   2.850  0.00  0.00    +0.001 A 
ATOM     18  C   UNL     1       1.972   7.169   2.075  0.00  0.00    +0.008 A 
ENDBRANCH  12  13
ENDBRANCH   9  11
ENDBRANCH   2   9
BRANCH   3  19
ATOM     19  O   UNL     1       3.336   4.665  -1.596  0.00  0.00    -0.503 OA
ATOM     20  H   UNL     1       3.966   4.973  -2.280  0.00  0.00    +0.292 HD
ENDBRANCH   3  19
BRANCH   5  21
ATOM     21  O   UNL     1       6.122   1.077  -2.770  0.00  0.00    -0.491 OA
ATOM     22  C   UNL     1       6.486  -0.298  -2.726  0.00  0.00    +0.277 C 
ENDBRANCH   5  21
BRANCH   4  23
ATOM     23  O   UNL     1       5.393   3.638  -2.963  0.00  0.00    -0.501 OA
ATOM     24  H   UNL     1       6.083   3.071  -3.364  0.00  0.00    +0.292 HD
ENDBRANCH   4  23
TORSDOF 7
