REMARK  Name = opt83.xyz
REMARK  12 active torsions:
REMARK  status: ('A' for Active; 'I' for Inactive)
REMARK    1  A    between atoms: C_1  and  O_2
REMARK    2  A    between atoms: O_2  and  C_3
REMARK    3  A    between atoms: C_4  and  O_13
REMARK    4  A    between atoms: C_7  and  C_9
REMARK    5  A    between atoms: C_10  and  C_11
REMARK    6  A    between atoms: C_11  and  O_12
REMARK    7  A    between atoms: O_13  and  C_14
REMARK    8  A    between atoms: C_15  and  O_24
REMARK    9  A    between atoms: C_16  and  O_23
REMARK   10  A    between atoms: C_17  and  O_22
REMARK   11  A    between atoms: C_18  and  C_20
REMARK   12  A    between atoms: C_20  and  O_21
REMARK                            x       y       z     vdW  Elec       q    Type
REMARK                         _______ _______ _______ _____ _____    ______ ____
ROOT
ATOM      1  C   UNL     1       0.647   5.096  -0.488  0.00  0.00    +0.339 C 
ATOM      2  C   UNL     1       1.080   6.348   0.305  0.00  0.00    +0.214 C 
ATOM      3  C   UNL     1       0.473   6.343   1.713  0.00  0.00    +0.180 C 
ATOM      4  C   UNL     1      -1.042   6.103   1.669  0.00  0.00    +0.177 C 
ATOM      5  C   UNL     1      -1.347   4.844   0.856  0.00  0.00    +0.179 C 
ATOM      6  O   UNL     1      -0.787   4.939  -0.465  0.00  0.00    -0.331 OA
ENDROOT
BRANCH   3   7
ATOM      7  O   UNL     1       0.741   7.614   2.330  0.00  0.00    -0.386 OA
ATOM      8  H   UNL     1      -0.097   8.122   2.278  0.00  0.00    +0.210 HD
ENDBRANCH   3   7
BRANCH   4   9
ATOM      9  O   UNL     1      -1.669   7.265   1.100  0.00  0.00    -0.386 OA
ATOM     10  H   UNL     1      -1.321   7.356   0.185  0.00  0.00    +0.210 HD
ENDBRANCH   4   9
BRANCH   2  11
ATOM     11  O   UNL     1       0.654   7.543  -0.382  0.00  0.00    -0.383 OA
ATOM     12  H   UNL     1       0.971   8.280   0.180  0.00  0.00    +0.210 HD
ENDBRANCH   2  11
BRANCH   1  13
ATOM     13  O   UNL     1       1.282   3.925   0.031  0.00  0.00    -0.457 OA
BRANCH  13  15
ATOM     14  C   UNL     1       2.814   2.139  -0.371  0.00  0.00    +0.162 A 
ATOM     15  C   UNL     1       2.417   3.470  -0.587  0.00  0.00    +0.165 A 
ATOM     16  C   UNL     1       3.234   4.288  -1.381  0.00  0.00    +0.050 A 
ATOM     17  C   UNL     1       4.405   3.795  -1.968  0.00  0.00    +0.012 A 
ATOM     18  C   UNL     1       4.811   2.478  -1.753  0.00  0.00    -0.022 A 
ATOM     19  C   UNL     1       4.004   1.664  -0.953  0.00  0.00    +0.057 A 
BRANCH  14  21
ATOM     20  C   UNL     1       0.806   1.342   0.670  0.00  0.00    +0.277 C 
ATOM     21  O   UNL     1       2.188   1.181   0.384  0.00  0.00    -0.491 OA
ENDBRANCH  14  21
BRANCH  18  22
ATOM     22  C   UNL     1       6.008   1.907  -2.389  0.00  0.00    +0.006 C 
ATOM     23  C   UNL     1       7.100   2.606  -2.731  0.00  0.00    +0.001 C 
BRANCH  23  24
ATOM     24  C   UNL     1       8.299   2.016  -3.398  0.00  0.00    +0.183 C 
BRANCH  24  25
ATOM     25  O   UNL     1       8.475   2.667  -4.646  0.00  0.00    -0.391 OA
ATOM     26  H   UNL     1       7.642   2.559  -5.138  0.00  0.00    +0.210 HD
ENDBRANCH  24  25
ENDBRANCH  23  24
ENDBRANCH  18  22
ENDBRANCH  13  15
ENDBRANCH   1  13
BRANCH   5  27
ATOM     27  C   UNL     1      -2.854   4.629   0.686  0.00  0.00    +0.190 C 
BRANCH  27  28
ATOM     28  O   UNL     1      -3.080   3.386   0.017  0.00  0.00    -0.392 OA
ATOM     29  H   UNL     1      -2.552   3.434  -0.804  0.00  0.00    +0.210 HD
ENDBRANCH  27  28
ENDBRANCH   5  27
TORSDOF 11
