REMARK  Name = opt81.xyz
REMARK  9 active torsions:
REMARK  status: ('A' for Active; 'I' for Inactive)
REMARK    1  A    between atoms: O_1  and  C_2
REMARK    2  A    between atoms: C_5  and  C_6
REMARK    3  A    between atoms: C_6  and  C_7
REMARK    4  A    between atoms: C_7  and  N_8
REMARK    5  A    between atoms: C_9  and  C_10
REMARK    6  A    between atoms: C_11  and  C_12
REMARK    7  A    between atoms: C_14  and  O_15
REMARK    8  A    between atoms: O_15  and  C_16
REMARK    9  A    between atoms: C_17  and  O_18
REMARK                            x       y       z     vdW  Elec       q    Type
REMARK                         _______ _______ _______ _____ _____    ______ ____
ROOT
ATOM      1  N   UNL     1      -5.482  -1.362  -0.126  0.00  0.00    -0.312 N 
ATOM      2  C   UNL     1      -6.216  -2.507   0.071  0.00  0.00    +0.237 C 
ATOM      3  O   UNL     1      -7.418  -2.522   0.299  0.00  0.00    -0.271 OA
ATOM      4  H   UNL     1      -4.551  -1.439  -0.516  0.00  0.00    +0.149 HD
ENDROOT
BRANCH   2   5
ATOM      5  C   UNL     1      -5.402  -3.743  -0.045  0.00  0.00    +0.068 C 
ATOM      6  C   UNL     1      -6.018  -4.936  -0.053  0.00  0.00    +0.013 C 
BRANCH   6   7
ATOM      7  C   UNL     1      -5.334  -6.237  -0.124  0.00  0.00    -0.021 A 
ATOM      8  C   UNL     1      -5.953  -7.349   0.476  0.00  0.00    +0.057 A 
ATOM      9  C   UNL     1      -5.360  -8.612   0.418  0.00  0.00    +0.162 A 
ATOM     10  C   UNL     1      -4.142  -8.753  -0.253  0.00  0.00    +0.158 A 
ATOM     11  C   UNL     1      -3.521  -7.674  -0.865  0.00  0.00    +0.050 A 
ATOM     12  C   UNL     1      -4.122  -6.415  -0.806  0.00  0.00    +0.012 A 
BRANCH   9  13
ATOM     13  O   UNL     1      -5.857  -9.767   0.965  0.00  0.00    -0.491 OA
ATOM     14  C   UNL     1      -7.116  -9.671   1.622  0.00  0.00    +0.277 C 
ENDBRANCH   9  13
BRANCH  10  15
ATOM     15  O   UNL     1      -3.533  -9.976  -0.325  0.00  0.00    -0.503 OA
ATOM     16  H   UNL     1      -4.127 -10.581   0.159  0.00  0.00    +0.292 HD
ENDBRANCH  10  15
ENDBRANCH   6   7
ENDBRANCH   2   5
BRANCH   1  17
ATOM     17  C   UNL     1      -6.146  -0.074  -0.211  0.00  0.00    +0.109 C 
BRANCH  17  18
ATOM     18  C   UNL     1      -5.173   1.106  -0.140  0.00  0.00    +0.054 C 
BRANCH  18  22
ATOM     19  C   UNL     1      -2.337   1.247  -3.380  0.00  0.00    +0.117 A 
ATOM     20  C   UNL     1      -1.885   1.134  -2.072  0.00  0.00    +0.045 A 
ATOM     21  C   UNL     1      -2.804   1.088  -1.022  0.00  0.00    +0.007 A 
ATOM     22  C   UNL     1      -4.181   1.152  -1.280  0.00  0.00    -0.046 A 
ATOM     23  C   UNL     1      -4.617   1.277  -2.608  0.00  0.00    +0.007 A 
ATOM     24  C   UNL     1      -3.697   1.319  -3.659  0.00  0.00    +0.045 A 
BRANCH  19  25
ATOM     25  O   UNL     1      -1.405   1.287  -4.374  0.00  0.00    -0.507 OA
ATOM     26  H   UNL     1      -1.862   1.390  -5.225  0.00  0.00    +0.292 HD
ENDBRANCH  19  25
ENDBRANCH  18  22
ENDBRANCH  17  18
ENDBRANCH   1  17
TORSDOF 8
