REMARK  Name = opt80.xyz
REMARK  5 active torsions:
REMARK  status: ('A' for Active; 'I' for Inactive)
REMARK    1  A    between atoms: C_1  and  O_2
REMARK    2  A    between atoms: O_2  and  C_3
REMARK    3  A    between atoms: C_3  and  C_5
REMARK    4  A    between atoms: C_7  and  O_12
REMARK    5  A    between atoms: C_8  and  O_11
REMARK                            x       y       z     vdW  Elec       q    Type
REMARK                         _______ _______ _______ _____ _____    ______ ____
ROOT
ATOM      1  C   UNL     1       4.682  -0.640  -1.100  0.00  0.00    +0.063 A 
ATOM      2  C   UNL     1       5.396  -0.911   0.080  0.00  0.00    +0.019 A 
ATOM      3  C   UNL     1       6.793  -0.906   0.074  0.00  0.00    +0.050 A 
ATOM      4  C   UNL     1       7.465  -0.629  -1.107  0.00  0.00    +0.158 A 
ATOM      5  C   UNL     1       6.766  -0.360  -2.281  0.00  0.00    +0.159 A 
ATOM      6  C   UNL     1       5.376  -0.363  -2.289  0.00  0.00    +0.064 A 
ENDROOT
BRANCH   1   7
ATOM      7  C   UNL     1       3.195  -0.633  -1.148  0.00  0.00    +0.339 C 
ATOM      8  O   UNL     1       2.559  -0.460  -2.176  0.00  0.00    -0.245 OA
BRANCH   7  10
ATOM      9  C   UNL     1       1.244  -0.828   0.121  0.00  0.00    +0.280 C 
ATOM     10  O   UNL     1       2.672  -0.833   0.087  0.00  0.00    -0.464 OA
ENDBRANCH   7  10
ENDBRANCH   1   7
BRANCH   4  11
ATOM     11  O   UNL     1       8.830  -0.623  -1.110  0.00  0.00    -0.503 OA
ATOM     12  H   UNL     1       9.075  -0.408  -2.032  0.00  0.00    +0.292 HD
ENDBRANCH   4  11
BRANCH   5  13
ATOM     13  O   UNL     1       7.495  -0.095  -3.408  0.00  0.00    -0.503 OA
ATOM     14  H   UNL     1       6.876   0.072  -4.141  0.00  0.00    +0.292 HD
ENDBRANCH   5  13
TORSDOF 4
