REMARK  Name = opt9.xyz
REMARK  10 active torsions:
REMARK  status: ('A' for Active; 'I' for Inactive)
REMARK    1  A    between atoms: C_1  and  O_2
REMARK    2  A    between atoms: O_2  and  C_3
REMARK    3  A    between atoms: C_4  and  O_5
REMARK    4  A    between atoms: C_8  and  C_10
REMARK    5  A    between atoms: C_11  and  C_12
REMARK    6  A    between atoms: C_12  and  C_14
REMARK    7  A    between atoms: C_15  and  O_16
REMARK    8  A    between atoms: C_18  and  O_19
REMARK    9  A    between atoms: C_21  and  O_22
REMARK   10  A    between atoms: O_22  and  C_23
REMARK                            x       y       z     vdW  Elec       q    Type
REMARK                         _______ _______ _______ _____ _____    ______ ____
ROOT
ATOM      1  C   UNL     1       8.796   3.330   0.735  0.00  0.00    +0.193 C 
ATOM      2  O   UNL     1       9.304   2.253   1.028  0.00  0.00    -0.287 OA
ENDROOT
BRANCH   1   3
ATOM      3  C   UNL     1       9.535   4.599   0.927  0.00  0.00    +0.105 A 
ATOM      4  C   UNL     1       8.957   5.670   1.631  0.00  0.00    +0.135 A 
ATOM      5  C   UNL     1       9.650   6.867   1.817  0.00  0.00    +0.091 A 
ATOM      6  C   UNL     1      10.952   6.979   1.347  0.00  0.00    +0.124 A 
ATOM      7  C   UNL     1      11.562   5.921   0.684  0.00  0.00    +0.092 A 
ATOM      8  C   UNL     1      10.851   4.737   0.456  0.00  0.00    +0.138 A 
BRANCH   4   9
ATOM      9  O   UNL     1       7.718   5.621   2.214  0.00  0.00    -0.506 OA
ATOM     10  H   UNL     1       7.530   4.707   2.498  0.00  0.00    +0.292 HD
ENDBRANCH   4   9
BRANCH   6  11
ATOM     11  O   UNL     1      11.679   8.117   1.533  0.00  0.00    -0.507 OA
ATOM     12  H   UNL     1      11.152   8.748   2.052  0.00  0.00    +0.292 HD
ENDBRANCH   6  11
BRANCH   8  13
ATOM     13  O   UNL     1      11.552   3.743  -0.173  0.00  0.00    -0.494 OA
ATOM     14  C   UNL     1      11.089   3.505  -1.501  0.00  0.00    +0.277 C 
ENDBRANCH   8  13
ENDBRANCH   1   3
BRANCH   1  16
ATOM     15  C   UNL     1       6.597   2.360   0.314  0.00  0.00    +0.012 C 
ATOM     16  C   UNL     1       7.399   3.431   0.218  0.00  0.00    +0.052 C 
BRANCH  15  21
ATOM     17  C   UNL     1       3.256   2.987  -1.372  0.00  0.00    +0.162 A 
ATOM     18  C   UNL     1       2.444   2.115  -0.648  0.00  0.00    +0.158 A 
ATOM     19  C   UNL     1       2.967   1.381   0.406  0.00  0.00    +0.050 A 
ATOM     20  C   UNL     1       4.327   1.490   0.709  0.00  0.00    +0.012 A 
ATOM     21  C   UNL     1       5.168   2.337  -0.033  0.00  0.00    -0.021 A 
ATOM     22  C   UNL     1       4.621   3.080  -1.088  0.00  0.00    +0.057 A 
BRANCH  17  24
ATOM     23  C   UNL     1       1.935   4.795  -1.942  0.00  0.00    +0.277 C 
ATOM     24  O   UNL     1       2.758   3.724  -2.415  0.00  0.00    -0.491 OA
ENDBRANCH  17  24
BRANCH  18  25
ATOM     25  O   UNL     1       1.132   1.924  -0.973  0.00  0.00    -0.503 OA
ATOM     26  H   UNL     1       1.032   2.258  -1.883  0.00  0.00    +0.292 HD
ENDBRANCH  18  25
ENDBRANCH  15  21
ENDBRANCH   1  16
TORSDOF 8
